data_structure

_audit_creation_method RASPA-1.0
_audit_creation_date 2023-5-22
_audit_author_name 'Poobodin Mano'

_cell_length_a    30.7337
_cell_length_b    30.7385
_cell_length_c    43.863
_cell_angle_alpha 90.0001
_cell_angle_beta  89.9998
_cell_angle_gamma 89.9992
_cell_volume      41437.7

_symmetry_cell_setting          triclinic
_symmetry_space_group_name_Hall 'P 1'
_symmetry_space_group_name_H-M  'P 1'
_symmetry_Int_Tables_number     1

_symmetry_equiv_pos_as_xyz 'x,y,z'

loop_
_atom_site_label
_atom_site_type_symbol
_atom_site_fract_x
_atom_site_fract_y
_atom_site_fract_z
_atom_site_charge
C1       C      0.061730000000     0.898090000000     0.403520000000     0.341526   
C2       C      0.905600000000     0.057400000000     0.403680000000     0.341716   
C3       C      0.905100000000     0.898530000000     0.403600000000     0.341358   
C4       C      0.061720000000     0.057380000000     0.403610000000     0.341991   
C5       C      0.903940000000     0.055440000000     0.058660000000     0.341227   
C6       C      0.063600000000     0.899760000000     0.058510000000     0.341003   
C7       C      0.827600000000     0.977650000000     0.482180000000     0.349268   
C8       C      0.983690000000     0.133820000000     0.480810000000     0.348973   
C9       C      0.139850000000     0.977720000000     0.981900000000     0.347799   
C10      C      0.983760000000     0.821540000000     0.980510000000     0.347514   
C11      C      0.904810000000     0.898870000000     0.058600000000     0.341008   
C12      C      0.063470000000     0.055560000000     0.058600000000     0.34131    
C13      C      0.983700000000     0.321540000000     0.481720000000     0.349086   
C14      C      0.827600000000     0.477710000000     0.480080000000     0.349316   
C15      C      0.905140000000     0.398660000000     0.058580000000     0.340575   
C16      C      0.904490000000     0.399130000000     0.403590000000     0.342017   
C17      C      0.983750000000     0.633820000000     0.981430000000     0.34764    
C18      C      0.139860000000     0.477650000000     0.979780000000     0.347784   
C19      C      0.905920000000     0.557600000000     0.058480000000     0.340857   
C20      C      0.903990000000     0.555570000000     0.403510000000     0.342509   
C21      C      0.062890000000     0.399150000000     0.403490000000     0.341542   
C22      C      0.062390000000     0.398580000000     0.058500000000     0.340392   
C23      C      0.062460000000     0.556840000000     0.058420000000     0.340902   
C24      C      0.062850000000     0.556110000000     0.403430000000     0.342071   
C25      C      0.327600000000     0.977720000000     0.481900000000     0.349271   
C26      C      0.483760000000     0.133820000000     0.480810000000     0.349136   
C27      C      0.403960000000     0.055550000000     0.058600000000     0.34109    
C28      C      0.405720000000     0.057350000000     0.403590000000     0.341398   
C29      C      0.639850000000     0.977650000000     0.982190000000     0.347837   
C30      C      0.483690000000     0.821540000000     0.980530000000     0.347596   
C31      C      0.563460000000     0.055500000000     0.058670000000     0.341247   
C32      C      0.561850000000     0.057390000000     0.403690000000     0.341922   
C33      C      0.405730000000     0.898050000000     0.403540000000     0.341726   
C34      C      0.403870000000     0.899750000000     0.058520000000     0.341573   
C35      C      0.562690000000     0.898940000000     0.058610000000     0.341125   
C36      C      0.562360000000     0.898530000000     0.403620000000     0.341645   
C37      C      0.327600000000     0.477650000000     0.479780000000     0.349324   
C38      C      0.483760000000     0.321540000000     0.481710000000     0.34921    
C39      C      0.404570000000     0.399130000000     0.403510000000     0.342165   
C40      C      0.405080000000     0.398560000000     0.058490000000     0.340739   
C41      C      0.639860000000     0.477710000000     0.980060000000     0.347661   
C42      C      0.483710000000     0.633820000000     0.981420000000     0.347722   
C43      C      0.562960000000     0.399140000000     0.403560000000     0.341756   
C44      C      0.562330000000     0.398660000000     0.058570000000     0.340347   
C45      C      0.405000000000     0.556810000000     0.058420000000     0.340485   
C46      C      0.404590000000     0.556090000000     0.403410000000     0.341644   
C47      C      0.563460000000     0.555560000000     0.403480000000     0.342015   
C48      C      0.561530000000     0.557590000000     0.058480000000     0.340692   
C49      C      0.157110000000     0.303900000000     0.309970000000     0.327592   
C50      C      0.158830000000     0.149730000000     0.152090000000     0.326452   
C51      C      0.156580000000     0.152090000000     0.310110000000     0.324659   
C52      C      0.158530000000     0.305100000000     0.151980000000     0.328852   
C53      C      0.309040000000     0.304950000000     0.151970000000     0.326044   
C54      C      0.310740000000     0.151950000000     0.310080000000     0.327482   
C55      C      0.308490000000     0.149580000000     0.152090000000     0.329052   
C56      C      0.310480000000     0.303760000000     0.309990000000     0.324845   
C57      C      0.156700000000     0.803420000000     0.310030000000     0.327375   
C58      C      0.158440000000     0.650410000000     0.151920000000     0.326208   
C59      C      0.156960000000     0.651540000000     0.309940000000     0.324748   
C60      C      0.159000000000     0.805740000000     0.152040000000     0.329205   
C61      C      0.308580000000     0.805600000000     0.152040000000     0.326601   
C62      C      0.310360000000     0.651410000000     0.309920000000     0.32768    
C63      C      0.308910000000     0.650260000000     0.151920000000     0.328795   
C64      C      0.310880000000     0.803280000000     0.310060000000     0.324561   
C65      C      0.810680000000     0.152040000000     0.310180000000     0.325732   
C66      C      0.809070000000     0.305010000000     0.152030000000     0.325533   
C67      C      0.810420000000     0.303790000000     0.310060000000     0.324314   
C68      C      0.808410000000     0.149540000000     0.152110000000     0.327136   
C69      C      0.658860000000     0.149710000000     0.152130000000     0.326252   
C70      C      0.657090000000     0.303870000000     0.310020000000     0.327851   
C71      C      0.658490000000     0.305110000000     0.152030000000     0.328502   
C72      C      0.656640000000     0.152090000000     0.310150000000     0.324843   
C73      C      0.809860000000     0.804130000000     0.310130000000     0.325551   
C74      C      0.656280000000     0.802990000000     0.152090000000     0.325917   
C75      C      0.657660000000     0.804260000000     0.310120000000     0.323904   
C76      C      0.811340000000     0.802760000000     0.152050000000     0.327252   
C77      C      0.811610000000     0.652890000000     0.151980000000     0.326145   
C78      C      0.658030000000     0.650470000000     0.309970000000     0.327787   
C79      C      0.655750000000     0.652950000000     0.151980000000     0.328639   
C80      C      0.809350000000     0.650410000000     0.309990000000     0.325136   
C81      C      0.349500000000     0.342520000000     0.074250000000    -0.00380065 
C82      C      0.380410000000     0.374400000000     0.082280000000    -0.0816211  
C83      C      0.387320000000     0.383160000000     0.113350000000    -0.00438528 
C84      C      0.364070000000     0.360750000000     0.135760000000    -0.0113739  
C85      C      0.333200000000     0.328840000000     0.127800000000    -0.0739529  
C86      C      0.326210000000     0.320020000000     0.096720000000    -0.00942062 
C87      C      0.326600000000     0.319810000000     0.365250000000    -0.0104107  
C88      C      0.334460000000     0.327800000000     0.334160000000    -0.0736095  
C89      C      0.365580000000     0.359470000000     0.326210000000    -0.0119995  
C90      C      0.388140000000     0.382520000000     0.348630000000    -0.00363138 
C91      C      0.380320000000     0.374620000000     0.379710000000    -0.0835232  
C92      C      0.349230000000     0.342920000000     0.387730000000    -0.00354664 
C93      C      0.349520000000     0.612930000000     0.074190000000    -0.00447454 
C94      C      0.380310000000     0.580940000000     0.082210000000    -0.0806815  
C95      C      0.387090000000     0.572020000000     0.113270000000    -0.0060972  
C96      C      0.363830000000     0.594390000000     0.135690000000    -0.00842231 
C97      C      0.333080000000     0.626420000000     0.127740000000    -0.0757704  
C98      C      0.326230000000     0.635400000000     0.096670000000    -0.00820407 
C99      C      0.349350000000     0.612410000000     0.387640000000    -0.00446139 
C100     C      0.380320000000     0.580590000000     0.379610000000    -0.0827874  
C101     C      0.387990000000     0.572570000000     0.348530000000    -0.00566878 
C102     C      0.365390000000     0.595590000000     0.326110000000    -0.00967917 
C103     C      0.334400000000     0.627390000000     0.334070000000    -0.0756783  
C104     C      0.326690000000     0.635510000000     0.365160000000    -0.00940928 
C105     C      0.576560000000     0.575700000000     0.113340000000    -0.00626872 
C106     C      0.585520000000     0.582420000000     0.082270000000    -0.0808482  
C107     C      0.617710000000     0.613000000000     0.074250000000    -0.00455241 
C108     C      0.640440000000     0.636050000000     0.096730000000    -0.00835973 
C109     C      0.631530000000     0.629140000000     0.127800000000    -0.075713   
C110     C      0.599190000000     0.598710000000     0.135750000000    -0.00866962 
C111     C      0.619700000000     0.610870000000     0.387700000000    -0.00429367 
C112     C      0.588110000000     0.579680000000     0.379680000000    -0.0827335  
C113     C      0.580160000000     0.571900000000     0.348600000000    -0.00561688 
C114     C      0.602930000000     0.594740000000     0.326170000000    -0.00961332 
C115     C      0.634390000000     0.626070000000     0.334130000000    -0.0755316  
C116     C      0.642550000000     0.633770000000     0.365210000000    -0.00931711 
C117     C      0.617810000000     0.342540000000     0.074330000000    -0.00452895 
C118     C      0.587020000000     0.374530000000     0.082360000000    -0.0809807  
C119     C      0.580260000000     0.383410000000     0.113440000000    -0.00640104 
C120     C      0.603530000000     0.361010000000     0.135830000000    -0.0087531  
C121     C      0.634290000000     0.328980000000     0.127860000000    -0.0757181  
C122     C      0.641130000000     0.320040000000     0.096790000000    -0.00851    
C123     C      0.640830000000     0.319730000000     0.365270000000    -0.00914843 
C124     C      0.633080000000     0.327870000000     0.334190000000    -0.0754253  
C125     C      0.602090000000     0.359660000000     0.326250000000    -0.00924513 
C126     C      0.579510000000     0.382670000000     0.348680000000    -0.00540615 
C127     C      0.587220000000     0.374630000000     0.379760000000    -0.0824645  
C128     C      0.618190000000     0.342820000000     0.387770000000    -0.00428108 
C129     C      0.444270000000     0.750330000000     0.980770000000    -0.00557313 
C130     C      0.483690000000     0.773510000000     0.980640000000    -0.0863452  
C131     C      0.523120000000     0.750340000000     0.480820000000    -0.00463821 
C132     C      0.523120000000     0.705030000000     0.481150000000    -0.00452767 
C133     C      0.483700000000     0.681840000000     0.981290000000    -0.0865231  
C134     C      0.444270000000     0.705020000000     0.981100000000    -0.00554253 
C135     C      0.444340000000     0.205030000000     0.981140000000    -0.00556753 
C136     C      0.483760000000     0.181840000000     0.480990000000    -0.085582   
C137     C      0.523190000000     0.205020000000     0.481190000000    -0.00464721 
C138     C      0.523190000000     0.250340000000     0.481520000000    -0.00463402 
C139     C      0.483760000000     0.273520000000     0.481640000000    -0.0855915  
C140     C      0.444340000000     0.250340000000     0.981470000000    -0.00553573 
C141     C      0.348330000000     0.843730000000     0.074300000000    -0.00336907 
C142     C      0.379060000000     0.875780000000     0.082310000000    -0.0813747  
C143     C      0.385940000000     0.884630000000     0.113380000000    -0.00368947 
C144     C      0.362940000000     0.862020000000     0.135800000000    -0.0108759  
C145     C      0.332370000000     0.829830000000     0.127860000000    -0.0736148  
C146     C      0.325300000000     0.821030000000     0.096790000000    -0.0089935  
C147     C      0.366640000000     0.858360000000     0.326260000000    -0.0120038  
C148     C      0.335220000000     0.826990000000     0.334220000000    -0.0737937  
C149     C      0.327420000000     0.818980000000     0.365310000000    -0.0107486  
C150     C      0.350300000000     0.841890000000     0.387790000000    -0.00397715 
C151     C      0.381590000000     0.873390000000     0.379750000000    -0.0835682  
C152     C      0.389460000000     0.881190000000     0.348660000000    -0.00385999 
C153     C      0.385810000000     0.070490000000     0.113450000000    -0.0057029  
C154     C      0.379130000000     0.079510000000     0.082390000000    -0.0806061  
C155     C      0.348560000000     0.111700000000     0.074370000000    -0.00417944 
C156     C      0.325480000000     0.134370000000     0.096850000000    -0.00800055 
C157     C      0.332340000000     0.125400000000     0.127920000000    -0.075465   
C158     C      0.362770000000     0.093070000000     0.135870000000    -0.00818357 
C159     C      0.350390000000     0.113610000000     0.387820000000    -0.0045604  
C160     C      0.381560000000     0.081990000000     0.379800000000    -0.0826378  
C161     C      0.389280000000     0.074020000000     0.348710000000    -0.00551347 
C162     C      0.366430000000     0.096800000000     0.326290000000    -0.00946339 
C163     C      0.335130000000     0.128290000000     0.334250000000    -0.075453   
C164     C      0.327480000000     0.136470000000     0.365340000000    -0.00963591 
C165     C      0.604430000000     0.093310000000     0.135940000000    -0.0111407  
C166     C      0.635030000000     0.125470000000     0.127980000000    -0.0736921  
C167     C      0.642090000000     0.134220000000     0.096900000000    -0.0091626  
C168     C      0.619020000000     0.111510000000     0.074430000000    -0.0034877  
C169     C      0.588270000000     0.079480000000     0.082460000000    -0.0815295  
C170     C      0.581400000000     0.070680000000     0.113530000000    -0.00397471 
C171     C      0.578090000000     0.074230000000     0.348810000000    -0.0035713  
C172     C      0.585980000000     0.082050000000     0.379900000000    -0.0833802  
C173     C      0.617280000000     0.113550000000     0.387910000000    -0.00379427 
C174     C      0.640150000000     0.136430000000     0.365420000000    -0.0105793  
C175     C      0.632320000000     0.128400000000     0.334340000000    -0.0735061  
C176     C      0.600890000000     0.097040000000     0.326390000000    -0.011815   
C177     C      0.578060000000     0.881220000000     0.113480000000    -0.00372327 
C178     C      0.586810000000     0.874270000000     0.082400000000    -0.08145    
C179     C      0.618670000000     0.843360000000     0.074380000000    -0.00325787 
C180     C      0.641180000000     0.820100000000     0.096850000000    -0.00920472 
C181     C      0.632370000000     0.827120000000     0.127930000000    -0.0733542  
C182     C      0.600470000000     0.858000000000     0.135890000000    -0.0110524  
C183     C      0.618530000000     0.843100000000     0.387870000000    -0.00400748 
C184     C      0.586890000000     0.874250000000     0.379840000000    -0.0835546  
C185     C      0.579020000000     0.882070000000     0.348750000000    -0.00372549 
C186     C      0.602030000000     0.859460000000     0.326340000000    -0.0122009  
C187     C      0.633650000000     0.828280000000     0.334300000000    -0.0742261  
C188     C      0.641620000000     0.820420000000     0.365390000000    -0.0108215  
C189     C      0.756390000000     0.438300000000     0.479690000000    -0.00455805 
C190     C      0.779580000000     0.477720000000     0.479750000000    -0.0855495  
C191     C      0.756390000000     0.517130000000     0.979650000000    -0.00541787 
C192     C      0.711070000000     0.517130000000     0.979650000000    -0.00557515 
C193     C      0.687880000000     0.477710000000     0.479740000000    -0.0855982  
C194     C      0.711070000000     0.438300000000     0.479680000000    -0.00453533 
C195     C      0.211070000000     0.438230000000     0.479320000000    -0.00457383 
C196     C      0.187880000000     0.477650000000     0.979390000000    -0.0863867  
C197     C      0.211070000000     0.517060000000     0.979260000000    -0.00549874 
C198     C      0.256390000000     0.517060000000     0.979260000000    -0.00540081 
C199     C      0.279580000000     0.477650000000     0.979390000000    -0.0865032  
C200     C      0.256390000000     0.438230000000     0.479320000000    -0.00456925 
C201     C      0.887380000000     0.383230000000     0.113450000000    -0.00421964 
C202     C      0.880470000000     0.374500000000     0.082370000000    -0.081639   
C203     C      0.849550000000     0.342640000000     0.074330000000    -0.0037743  
C204     C      0.826250000000     0.320120000000     0.096790000000    -0.00955465 
C205     C      0.833240000000     0.328910000000     0.127870000000    -0.0736365  
C206     C      0.864130000000     0.360810000000     0.135840000000    -0.0114553  
C207     C      0.888070000000     0.382520000000     0.348710000000    -0.00353897 
C208     C      0.880230000000     0.374620000000     0.379790000000    -0.0832224  
C209     C      0.849120000000     0.342940000000     0.387810000000    -0.00367869 
C210     C      0.826500000000     0.319830000000     0.365320000000    -0.0103898  
C211     C      0.834390000000     0.327830000000     0.334230000000    -0.0741129  
C212     C      0.865520000000     0.359480000000     0.326290000000    -0.0118601  
C213     C      0.849850000000     0.613120000000     0.074240000000    -0.00380974 
C214     C      0.881920000000     0.582420000000     0.082270000000    -0.081438   
C215     C      0.890740000000     0.575560000000     0.113340000000    -0.00399777 
C216     C      0.868080000000     0.598560000000     0.135750000000    -0.0111028  
C217     C      0.835870000000     0.629120000000     0.127800000000    -0.0737556  
C218     C      0.827100000000     0.636160000000     0.096720000000    -0.00936391 
C219     C      0.887150000000     0.571780000000     0.348630000000    -0.00322989 
C220     C      0.879330000000     0.579690000000     0.379710000000    -0.0833313  
C221     C      0.847850000000     0.611000000000     0.387730000000    -0.00348146 
C222     C      0.824990000000     0.633880000000     0.365240000000    -0.0103442  
C223     C      0.833020000000     0.626050000000     0.334160000000    -0.0733406  
C224     C      0.864360000000     0.594600000000     0.326200000000    -0.01167    
C225     C      0.118060000000     0.612830000000     0.074180000000    -0.00365712 
C226     C      0.087130000000     0.580980000000     0.082200000000    -0.0815216  
C227     C      0.080170000000     0.572240000000     0.113280000000    -0.00395812 
C228     C      0.103400000000     0.594640000000     0.135690000000    -0.0110378  
C229     C      0.134300000000     0.626520000000     0.127740000000    -0.073768   
C230     C      0.141330000000     0.635330000000     0.096660000000    -0.00929061 
C231     C      0.118200000000     0.612330000000     0.387660000000    -0.00368311 
C232     C      0.087110000000     0.580640000000     0.379630000000    -0.0833901  
C233     C      0.079290000000     0.572750000000     0.348550000000    -0.00363552 
C234     C      0.101860000000     0.595810000000     0.326130000000    -0.0119448  
C235     C      0.132970000000     0.627480000000     0.334100000000    -0.0736247  
C236     C      0.140830000000     0.635460000000     0.365180000000    -0.0104441  
C237     C      0.117840000000     0.342430000000     0.074260000000    -0.00452978 
C238     C      0.087080000000     0.374450000000     0.082290000000    -0.0806205  
C239     C      0.080340000000     0.383380000000     0.113360000000    -0.00609667 
C240     C      0.103610000000     0.361010000000     0.135760000000    -0.00826403 
C241     C      0.134330000000     0.328950000000     0.127810000000    -0.0757008  
C242     C      0.141150000000     0.319960000000     0.096730000000    -0.00828147 
C243     C      0.102080000000     0.359700000000     0.326190000000    -0.00938159 
C244     C      0.133070000000     0.327910000000     0.334140000000    -0.0753761  
C245     C      0.140790000000     0.319760000000     0.365220000000    -0.00936295 
C246     C      0.118130000000     0.342840000000     0.387710000000    -0.0043884  
C247     C      0.087160000000     0.374660000000     0.379690000000    -0.0825436  
C248     C      0.079490000000     0.382710000000     0.348610000000    -0.00542271 
C249     C      0.756390000000     0.017060000000     0.482630000000    -0.00446628 
C250     C      0.779570000000     0.977650000000     0.482540000000    -0.0856282  
C251     C      0.756390000000     0.938230000000     0.982620000000    -0.00557491 
C252     C      0.711070000000     0.938230000000     0.982620000000    -0.00556219 
C253     C      0.687880000000     0.977650000000     0.982540000000    -0.0865797  
C254     C      0.711060000000     0.017060000000     0.482630000000    -0.00447009 
C255     C      0.256380000000     0.017140000000     0.982270000000    -0.00539173 
C256     C      0.279570000000     0.977730000000     0.482180000000    -0.0855746  
C257     C      0.256390000000     0.938310000000     0.482230000000    -0.00456582 
C258     C      0.211070000000     0.938310000000     0.482230000000    -0.00454345 
C259     C      0.187880000000     0.977720000000     0.982180000000    -0.0865391  
C260     C      0.211060000000     0.017140000000     0.982270000000    -0.00542172 
C261     C      0.944340000000     0.750330000000     0.480790000000    -0.00466909 
C262     C      0.983770000000     0.773510000000     0.980620000000    -0.0863816  
C263     C      0.023190000000     0.750330000000     0.980780000000    -0.00556426 
C264     C      0.023180000000     0.705020000000     0.981110000000    -0.00535512 
C265     C      0.983760000000     0.681840000000     0.981290000000    -0.0866125  
C266     C      0.944340000000     0.705030000000     0.481120000000    -0.00448215 
C267     C      0.944260000000     0.205030000000     0.981200000000    -0.00563939 
C268     C      0.983690000000     0.181840000000     0.481000000000    -0.0856721  
C269     C      0.023110000000     0.205020000000     0.481140000000    -0.00459127 
C270     C      0.023110000000     0.250330000000     0.481470000000    -0.00454373 
C271     C      0.983690000000     0.273520000000     0.481650000000    -0.0857034  
C272     C      0.944270000000     0.250340000000     0.981530000000    -0.00551991 
C273     C      0.848610000000     0.843500000000     0.074360000000    -0.00348517 
C274     C      0.880740000000     0.874150000000     0.082380000000    -0.0811627  
C275     C      0.889800000000     0.880760000000     0.113450000000    -0.00483134 
C276     C      0.867430000000     0.857490000000     0.135850000000    -0.00915397 
C277     C      0.835240000000     0.826910000000     0.127890000000    -0.0732269  
C278     C      0.826140000000     0.820200000000     0.096830000000    -0.00889685 
C279     C      0.888570000000     0.881910000000     0.348730000000    -0.00541508 
C280     C      0.880580000000     0.874230000000     0.379820000000    -0.0830992  
C281     C      0.848820000000     0.843210000000     0.387860000000    -0.00466236 
C282     C      0.825740000000     0.820500000000     0.365380000000    -0.0100069  
C283     C      0.833840000000     0.828210000000     0.334290000000    -0.0761223  
C284     C      0.865570000000     0.859260000000     0.326320000000    -0.0109379  
C285     C      0.848600000000     0.111660000000     0.074420000000    -0.00354584 
C286     C      0.879080000000     0.079380000000     0.082450000000    -0.0811032  
C287     C      0.885640000000     0.070290000000     0.113510000000    -0.00463159 
C288     C      0.862570000000     0.092880000000     0.135910000000    -0.00902473 
C289     C      0.832240000000     0.125310000000     0.127960000000    -0.0731248  
C290     C      0.825500000000     0.134350000000     0.096880000000    -0.0090015  
C291     C      0.866370000000     0.096910000000     0.326390000000    -0.0108013  
C292     C      0.835050000000     0.128380000000     0.334350000000    -0.0759903  
C293     C      0.827360000000     0.136520000000     0.365440000000    -0.00994589 
C294     C      0.850260000000     0.113650000000     0.387920000000    -0.00452122 
C295     C      0.881450000000     0.082060000000     0.379890000000    -0.0830397  
C296     C      0.889210000000     0.074120000000     0.348810000000    -0.00514948 
C297     C      0.142050000000     0.134310000000     0.096850000000    -0.00908149 
C298     C      0.135020000000     0.125500000000     0.127920000000    -0.0736471  
C299     C      0.104450000000     0.093300000000     0.135870000000    -0.01106    
C300     C      0.081430000000     0.070690000000     0.113460000000    -0.00384521 
C301     C      0.088280000000     0.079540000000     0.082390000000    -0.0814388  
C302     C      0.118990000000     0.111600000000     0.074370000000    -0.00342383 
C303     C      0.117160000000     0.113540000000     0.387850000000    -0.00388365 
C304     C      0.085860000000     0.082050000000     0.379820000000    -0.083648   
C305     C      0.077980000000     0.074230000000     0.348740000000    -0.00382868 
C306     C      0.100800000000     0.097040000000     0.326320000000    -0.0121525  
C307     C      0.132230000000     0.128400000000     0.334280000000    -0.0737311  
C308     C      0.140050000000     0.136420000000     0.365370000000    -0.0107539  
C309     C      0.119020000000     0.843630000000     0.074300000000    -0.00412393 
C310     C      0.088430000000     0.875810000000     0.082300000000    -0.080518   
C311     C      0.081710000000     0.884820000000     0.113360000000    -0.0056734  
C312     C      0.104730000000     0.862250000000     0.135790000000    -0.00820708 
C313     C      0.135170000000     0.829920000000     0.127860000000    -0.0754453  
C314     C      0.142080000000     0.820960000000     0.096790000000    -0.00792812 
C315     C      0.078170000000     0.881400000000     0.348630000000    -0.00584518 
C316     C      0.085880000000     0.873440000000     0.379720000000    -0.0828405  
C317     C      0.117050000000     0.841820000000     0.387750000000    -0.00466805 
C318     C      0.139960000000     0.818940000000     0.365280000000    -0.00973098 
C319     C      0.132310000000     0.827100000000     0.334190000000    -0.0757008  
C320     C      0.101020000000     0.858600000000     0.326220000000    -0.00974705 
C321     C      0.061730000000     0.898090000000     0.903510000000     0.341141   
C322     C      0.905600000000     0.057400000000     0.903680000000     0.34139    
C323     C      0.905100000000     0.898540000000     0.903600000000     0.34115    
C324     C      0.061720000000     0.057380000000     0.903610000000     0.341699   
C325     C      0.903940000000     0.055440000000     0.558660000000     0.342194   
C326     C      0.063600000000     0.899760000000     0.558510000000     0.341953   
C327     C      0.827600000000     0.977650000000     0.982180000000     0.347808   
C328     C      0.983690000000     0.133820000000     0.980810000000     0.347397   
C329     C      0.139850000000     0.977720000000     0.481890000000     0.349209   
C330     C      0.983770000000     0.821540000000     0.480510000000     0.348907   
C331     C      0.904810000000     0.898870000000     0.558600000000     0.34195    
C332     C      0.063470000000     0.055560000000     0.558600000000     0.342267   
C333     C      0.983700000000     0.321540000000     0.981720000000     0.347636   
C334     C      0.827600000000     0.477720000000     0.980080000000     0.347961   
C335     C      0.905140000000     0.398650000000     0.558580000000     0.341457   
C336     C      0.904490000000     0.399130000000     0.903590000000     0.34208    
C337     C      0.983750000000     0.633820000000     0.481430000000     0.349051   
C338     C      0.139860000000     0.477650000000     0.479780000000     0.349211   
C339     C      0.905920000000     0.557600000000     0.558480000000     0.341802   
C340     C      0.903990000000     0.555580000000     0.903510000000     0.342168   
C341     C      0.062890000000     0.399160000000     0.903490000000     0.341266   
C342     C      0.062390000000     0.398580000000     0.558500000000     0.341369   
C343     C      0.062460000000     0.556830000000     0.558420000000     0.341803   
C344     C      0.062850000000     0.556110000000     0.903430000000     0.341754   
C345     C      0.327600000000     0.977720000000     0.981900000000     0.347838   
C346     C      0.483760000000     0.133820000000     0.980810000000     0.347549   
C347     C      0.403960000000     0.055550000000     0.558600000000     0.34202    
C348     C      0.405720000000     0.057350000000     0.903590000000     0.341286   
C349     C      0.639850000000     0.977650000000     0.482190000000     0.349267   
C350     C      0.483690000000     0.821540000000     0.480530000000     0.349083   
C351     C      0.563460000000     0.055500000000     0.558670000000     0.342082   
C352     C      0.561840000000     0.057390000000     0.903690000000     0.341713   
C353     C      0.405730000000     0.898050000000     0.903540000000     0.341357   
C354     C      0.403860000000     0.899750000000     0.558520000000     0.342481   
C355     C      0.562680000000     0.898940000000     0.558610000000     0.342201   
C356     C      0.562360000000     0.898530000000     0.903630000000     0.341454   
C357     C      0.327600000000     0.477650000000     0.979780000000     0.347997   
C358     C      0.483760000000     0.321540000000     0.981710000000     0.347785   
C359     C      0.404570000000     0.399130000000     0.903510000000     0.341807   
C360     C      0.405080000000     0.398550000000     0.558490000000     0.341655   
C361     C      0.639860000000     0.477710000000     0.480060000000     0.349284   
C362     C      0.483710000000     0.633820000000     0.481420000000     0.349112   
C363     C      0.562960000000     0.399140000000     0.903560000000     0.341455   
C364     C      0.562330000000     0.398660000000     0.558570000000     0.341253   
C365     C      0.405000000000     0.556810000000     0.558420000000     0.341536   
C366     C      0.404590000000     0.556090000000     0.903410000000     0.341186   
C367     C      0.563460000000     0.555560000000     0.903480000000     0.34159    
C368     C      0.561530000000     0.557590000000     0.558480000000     0.341724   
C369     C      0.157110000000     0.303900000000     0.809980000000     0.327758   
C370     C      0.158830000000     0.149730000000     0.652090000000     0.326122   
C371     C      0.156580000000     0.152090000000     0.810110000000     0.324717   
C372     C      0.158530000000     0.305100000000     0.651980000000     0.328467   
C373     C      0.309040000000     0.304950000000     0.651970000000     0.325885   
C374     C      0.310740000000     0.151950000000     0.810080000000     0.327645   
C375     C      0.308490000000     0.149580000000     0.652090000000     0.328927   
C376     C      0.310480000000     0.303760000000     0.809990000000     0.324906   
C377     C      0.156700000000     0.803410000000     0.810030000000     0.32749    
C378     C      0.158440000000     0.650410000000     0.651920000000     0.326031   
C379     C      0.156960000000     0.651550000000     0.809940000000     0.324794   
C380     C      0.159000000000     0.805740000000     0.652040000000     0.329106   
C381     C      0.308580000000     0.805600000000     0.652040000000     0.32646    
C382     C      0.310360000000     0.651410000000     0.809920000000     0.32776    
C383     C      0.308910000000     0.650260000000     0.651920000000     0.328511   
C384     C      0.310880000000     0.803280000000     0.810060000000     0.324611   
C385     C      0.810680000000     0.152040000000     0.810180000000     0.325761   
C386     C      0.809070000000     0.305010000000     0.652030000000     0.325399   
C387     C      0.810420000000     0.303790000000     0.810060000000     0.32431    
C388     C      0.808410000000     0.149540000000     0.652110000000     0.326924   
C389     C      0.658860000000     0.149700000000     0.652130000000     0.326087   
C390     C      0.657100000000     0.303870000000     0.810020000000     0.32794    
C391     C      0.658490000000     0.305110000000     0.652030000000     0.328465   
C392     C      0.656640000000     0.152090000000     0.810150000000     0.325001   
C393     C      0.809860000000     0.804140000000     0.810130000000     0.32545    
C394     C      0.656280000000     0.802980000000     0.652090000000     0.32593    
C395     C      0.657660000000     0.804260000000     0.810120000000     0.323947   
C396     C      0.811340000000     0.802760000000     0.652050000000     0.327091   
C397     C      0.811620000000     0.652890000000     0.651980000000     0.326068   
C398     C      0.658030000000     0.650470000000     0.809970000000     0.327888   
C399     C      0.655750000000     0.652950000000     0.651980000000     0.328579   
C400     C      0.809350000000     0.650410000000     0.809990000000     0.325199   
C401     C      0.349500000000     0.342530000000     0.574250000000    -0.00390047 
C402     C      0.380410000000     0.374400000000     0.582280000000    -0.0833515  
C403     C      0.387320000000     0.383160000000     0.613350000000    -0.0040835  
C404     C      0.364070000000     0.360750000000     0.635760000000    -0.0118404  
C405     C      0.333200000000     0.328850000000     0.627800000000    -0.073901   
C406     C      0.326210000000     0.320020000000     0.596720000000    -0.0103734  
C407     C      0.326600000000     0.319810000000     0.865250000000    -0.0103929  
C408     C      0.334460000000     0.327800000000     0.834160000000    -0.073581   
C409     C      0.365580000000     0.359470000000     0.826210000000    -0.0118897  
C410     C      0.388140000000     0.382520000000     0.848630000000    -0.00364907 
C411     C      0.380310000000     0.374610000000     0.879710000000    -0.083243   
C412     C      0.349230000000     0.342920000000     0.887730000000    -0.00356341 
C413     C      0.349520000000     0.612930000000     0.574190000000    -0.00458958 
C414     C      0.380310000000     0.580930000000     0.582210000000    -0.0824612  
C415     C      0.387090000000     0.572020000000     0.613270000000    -0.00571838 
C416     C      0.363830000000     0.594390000000     0.635690000000    -0.00894024 
C417     C      0.333090000000     0.626420000000     0.627740000000    -0.0756606  
C418     C      0.326230000000     0.635400000000     0.596670000000    -0.00914901 
C419     C      0.349350000000     0.612410000000     0.887640000000    -0.00452337 
C420     C      0.380320000000     0.580600000000     0.879610000000    -0.0824588  
C421     C      0.388000000000     0.572560000000     0.848530000000    -0.00577718 
C422     C      0.365390000000     0.595590000000     0.826110000000    -0.00951454 
C423     C      0.334400000000     0.627390000000     0.834070000000    -0.0756864  
C424     C      0.326690000000     0.635510000000     0.865160000000    -0.00934278 
C425     C      0.576560000000     0.575700000000     0.613330000000    -0.00590015 
C426     C      0.585520000000     0.582420000000     0.582260000000    -0.0826499  
C427     C      0.617710000000     0.613000000000     0.574250000000    -0.0046293  
C428     C      0.640440000000     0.636050000000     0.596730000000    -0.00929929 
C429     C      0.631530000000     0.629140000000     0.627800000000    -0.075705   
C430     C      0.599190000000     0.598710000000     0.635750000000    -0.00916836 
C431     C      0.619700000000     0.610870000000     0.887700000000    -0.0042976  
C432     C      0.588110000000     0.579680000000     0.879680000000    -0.0824824  
C433     C      0.580160000000     0.571900000000     0.848600000000    -0.00565541 
C434     C      0.602940000000     0.594740000000     0.826170000000    -0.00947229 
C435     C      0.634390000000     0.626070000000     0.834130000000    -0.0755008  
C436     C      0.642550000000     0.633770000000     0.865220000000    -0.00933659 
C437     C      0.617810000000     0.342540000000     0.574330000000    -0.00468631 
C438     C      0.587020000000     0.374530000000     0.582360000000    -0.0826416  
C439     C      0.580250000000     0.383410000000     0.613430000000    -0.00612097 
C440     C      0.603530000000     0.361010000000     0.635830000000    -0.00919764 
C441     C      0.634290000000     0.328980000000     0.627860000000    -0.0757483  
C442     C      0.641130000000     0.320040000000     0.596790000000    -0.00939903 
C443     C      0.640830000000     0.319730000000     0.865280000000    -0.00919787 
C444     C      0.633080000000     0.327870000000     0.834190000000    -0.0753414  
C445     C      0.602090000000     0.359660000000     0.826250000000    -0.00916058 
C446     C      0.579510000000     0.382680000000     0.848680000000    -0.00538963 
C447     C      0.587220000000     0.374630000000     0.879760000000    -0.0822609  
C448     C      0.618200000000     0.342820000000     0.887770000000    -0.00426441 
C449     C      0.444270000000     0.750330000000     0.480770000000    -0.00466321 
C450     C      0.483690000000     0.773520000000     0.480640000000    -0.0854679  
C451     C      0.523110000000     0.750330000000     0.980830000000    -0.00552048 
C452     C      0.523120000000     0.705020000000     0.981150000000    -0.00548604 
C453     C      0.483700000000     0.681840000000     0.481290000000    -0.0856083  
C454     C      0.444280000000     0.705020000000     0.481100000000    -0.00456644 
C455     C      0.444340000000     0.205030000000     0.481140000000    -0.00460397 
C456     C      0.483760000000     0.181840000000     0.980990000000    -0.0864343  
C457     C      0.523190000000     0.205020000000     0.981190000000    -0.00560963 
C458     C      0.523190000000     0.250340000000     0.981520000000    -0.00553298 
C459     C      0.483760000000     0.273520000000     0.981640000000    -0.0865619  
C460     C      0.444340000000     0.250340000000     0.481470000000    -0.00463851 
C461     C      0.348330000000     0.843730000000     0.574300000000    -0.00351165 
C462     C      0.379060000000     0.875780000000     0.582310000000    -0.0831036  
C463     C      0.385940000000     0.884630000000     0.613380000000    -0.00336325 
C464     C      0.362950000000     0.862020000000     0.635800000000    -0.0113728  
C465     C      0.332360000000     0.829830000000     0.627860000000    -0.0736156  
C466     C      0.325300000000     0.821030000000     0.596790000000    -0.00989697 
C467     C      0.366640000000     0.858360000000     0.826260000000    -0.0119031  
C468     C      0.335220000000     0.826990000000     0.834220000000    -0.073757   
C469     C      0.327420000000     0.818980000000     0.865310000000    -0.0107323  
C470     C      0.350300000000     0.841890000000     0.887790000000    -0.00399719 
C471     C      0.381590000000     0.873390000000     0.879750000000    -0.0833307  
C472     C      0.389460000000     0.881190000000     0.848660000000    -0.00385702 
C473     C      0.385810000000     0.070490000000     0.613450000000    -0.00543135 
C474     C      0.379130000000     0.079510000000     0.582390000000    -0.0822853  
C475     C      0.348560000000     0.111700000000     0.574370000000    -0.00434118 
C476     C      0.325480000000     0.134370000000     0.596850000000    -0.00890119 
C477     C      0.332340000000     0.125400000000     0.627920000000    -0.0754765  
C478     C      0.362760000000     0.093070000000     0.635870000000    -0.00861095 
C479     C      0.350390000000     0.113610000000     0.887820000000    -0.00459317 
C480     C      0.381560000000     0.081990000000     0.879800000000    -0.0824669  
C481     C      0.389280000000     0.074020000000     0.848710000000    -0.00550734 
C482     C      0.366430000000     0.096800000000     0.826290000000    -0.00930846 
C483     C      0.335130000000     0.128290000000     0.834250000000    -0.0754852  
C484     C      0.327480000000     0.136470000000     0.865340000000    -0.00959204 
C485     C      0.604430000000     0.093310000000     0.635940000000    -0.0115792  
C486     C      0.635030000000     0.125470000000     0.627980000000    -0.0737249  
C487     C      0.642090000000     0.134220000000     0.596900000000    -0.0100476  
C488     C      0.619020000000     0.111510000000     0.574430000000    -0.00366843 
C489     C      0.588270000000     0.079480000000     0.582460000000    -0.0831786  
C490     C      0.581400000000     0.070680000000     0.613530000000    -0.00370907 
C491     C      0.578090000000     0.074230000000     0.848810000000    -0.00356758 
C492     C      0.585980000000     0.082050000000     0.879900000000    -0.0831704  
C493     C      0.617280000000     0.113550000000     0.887910000000    -0.00381052 
C494     C      0.640150000000     0.136430000000     0.865420000000    -0.0105496  
C495     C      0.632320000000     0.128400000000     0.834340000000    -0.0735202  
C496     C      0.600890000000     0.097040000000     0.826390000000    -0.0116973  
C497     C      0.578060000000     0.881220000000     0.613480000000    -0.00339452 
C498     C      0.586810000000     0.874270000000     0.582400000000    -0.0831574  
C499     C      0.618670000000     0.843360000000     0.574380000000    -0.00345419 
C500     C      0.641180000000     0.820100000000     0.596850000000    -0.0100803  
C501     C      0.632370000000     0.827120000000     0.627930000000    -0.0733504  
C502     C      0.600470000000     0.858000000000     0.635890000000    -0.0115633  
C503     C      0.618530000000     0.843100000000     0.887870000000    -0.0040782  
C504     C      0.586880000000     0.874250000000     0.879840000000    -0.0833207  
C505     C      0.579020000000     0.882070000000     0.848750000000    -0.00371086 
C506     C      0.602030000000     0.859460000000     0.826340000000    -0.012097   
C507     C      0.633650000000     0.828290000000     0.834300000000    -0.0741945  
C508     C      0.641620000000     0.820430000000     0.865380000000    -0.0107387  
C509     C      0.756390000000     0.438300000000     0.979690000000    -0.00539802 
C510     C      0.779580000000     0.477720000000     0.979750000000    -0.0865267  
C511     C      0.756390000000     0.517130000000     0.479650000000    -0.00457915 
C512     C      0.711070000000     0.517130000000     0.479650000000    -0.00459897 
C513     C      0.687890000000     0.477720000000     0.979740000000    -0.0863415  
C514     C      0.711070000000     0.438300000000     0.979680000000    -0.00555093 
C515     C      0.211070000000     0.438230000000     0.979320000000    -0.00550609 
C516     C      0.187880000000     0.477650000000     0.479390000000    -0.0855041  
C517     C      0.211070000000     0.517060000000     0.479260000000    -0.00453822 
C518     C      0.256390000000     0.517060000000     0.479260000000    -0.00455491 
C519     C      0.279570000000     0.477650000000     0.479390000000    -0.0854993  
C520     C      0.256390000000     0.438230000000     0.979320000000    -0.00543094 
C521     C      0.887380000000     0.383230000000     0.613450000000    -0.00393571 
C522     C      0.880460000000     0.374500000000     0.582370000000    -0.0833176  
C523     C      0.849550000000     0.342640000000     0.574330000000    -0.00391084 
C524     C      0.826250000000     0.320120000000     0.596790000000    -0.0104673  
C525     C      0.833240000000     0.328910000000     0.627870000000    -0.0736308  
C526     C      0.864130000000     0.360810000000     0.635840000000    -0.0119082  
C527     C      0.888070000000     0.382520000000     0.848710000000    -0.00345826 
C528     C      0.880230000000     0.374620000000     0.879800000000    -0.0832075  
C529     C      0.849120000000     0.342940000000     0.887810000000    -0.00358116 
C530     C      0.826510000000     0.319830000000     0.865320000000    -0.0104165  
C531     C      0.834390000000     0.327830000000     0.834230000000    -0.0740261  
C532     C      0.865520000000     0.359490000000     0.826290000000    -0.0118262  
C533     C      0.849850000000     0.613120000000     0.574240000000    -0.00396588 
C534     C      0.881920000000     0.582420000000     0.582270000000    -0.0831253  
C535     C      0.890740000000     0.575560000000     0.613340000000    -0.00368413 
C536     C      0.868090000000     0.598550000000     0.635750000000    -0.0115828  
C537     C      0.835870000000     0.629120000000     0.627800000000    -0.0738054  
C538     C      0.827100000000     0.636160000000     0.596720000000    -0.0102455  
C539     C      0.887150000000     0.571780000000     0.848630000000    -0.00317874 
C540     C      0.879330000000     0.579690000000     0.879710000000    -0.0831607  
C541     C      0.847850000000     0.611000000000     0.887730000000    -0.00347243 
C542     C      0.824990000000     0.633880000000     0.865240000000    -0.0103436  
C543     C      0.833020000000     0.626050000000     0.834160000000    -0.0732874  
C544     C      0.864370000000     0.594600000000     0.826200000000    -0.0116103  
C545     C      0.118060000000     0.612830000000     0.574180000000    -0.00387206 
C546     C      0.087130000000     0.580980000000     0.582210000000    -0.0830892  
C547     C      0.080170000000     0.572240000000     0.613280000000    -0.00369072 
C548     C      0.103400000000     0.594640000000     0.635690000000    -0.0114833  
C549     C      0.134300000000     0.626520000000     0.627740000000    -0.0737608  
C550     C      0.141330000000     0.635330000000     0.596660000000    -0.0101694  
C551     C      0.118200000000     0.612330000000     0.887660000000    -0.00365935 
C552     C      0.087110000000     0.580640000000     0.879630000000    -0.0831894  
C553     C      0.079290000000     0.572750000000     0.848550000000    -0.00363556 
C554     C      0.101860000000     0.595810000000     0.826140000000    -0.0118108  
C555     C      0.132970000000     0.627480000000     0.834100000000    -0.0735747  
C556     C      0.140830000000     0.635460000000     0.865180000000    -0.0104399  
C557     C      0.117840000000     0.342430000000     0.574260000000    -0.00464551 
C558     C      0.087080000000     0.374450000000     0.582290000000    -0.0823433  
C559     C      0.080340000000     0.383380000000     0.613360000000    -0.00575245 
C560     C      0.103610000000     0.361010000000     0.635760000000    -0.00881792 
C561     C      0.134330000000     0.328950000000     0.627800000000    -0.0755451  
C562     C      0.141150000000     0.319960000000     0.596730000000    -0.00923867 
C563     C      0.102080000000     0.359700000000     0.826190000000    -0.00921829 
C564     C      0.133070000000     0.327910000000     0.834140000000    -0.0754585  
C565     C      0.140790000000     0.319760000000     0.865220000000    -0.00930831 
C566     C      0.118130000000     0.342850000000     0.887710000000    -0.00441401 
C567     C      0.087160000000     0.374660000000     0.879690000000    -0.0822991  
C568     C      0.079490000000     0.382710000000     0.848610000000    -0.00544919 
C569     C      0.756390000000     0.017060000000     0.982630000000    -0.00540694 
C570     C      0.779570000000     0.977650000000     0.982540000000    -0.0865745  
C571     C      0.756390000000     0.938230000000     0.482620000000    -0.00463522 
C572     C      0.711060000000     0.938230000000     0.482620000000    -0.00463755 
C573     C      0.687880000000     0.977650000000     0.482540000000    -0.0856121  
C574     C      0.711070000000     0.017060000000     0.982630000000    -0.00539338 
C575     C      0.256380000000     0.017140000000     0.482270000000    -0.0044531  
C576     C      0.279570000000     0.977730000000     0.982180000000    -0.0865209  
C577     C      0.256390000000     0.938310000000     0.982230000000    -0.0055149  
C578     C      0.211070000000     0.938310000000     0.982230000000    -0.00543571 
C579     C      0.187880000000     0.977720000000     0.482180000000    -0.0855626  
C580     C      0.211060000000     0.017140000000     0.482270000000    -0.004502   
C581     C      0.944340000000     0.750330000000     0.980790000000    -0.00559428 
C582     C      0.983770000000     0.773510000000     0.480620000000    -0.0854534  
C583     C      0.023190000000     0.750330000000     0.480780000000    -0.00464709 
C584     C      0.023180000000     0.705020000000     0.481110000000    -0.00443862 
C585     C      0.983760000000     0.681840000000     0.481290000000    -0.0856585  
C586     C      0.944340000000     0.705020000000     0.981120000000    -0.00540437 
C587     C      0.944260000000     0.205030000000     0.481200000000    -0.00466699 
C588     C      0.983680000000     0.181840000000     0.981000000000    -0.086515   
C589     C      0.023110000000     0.205020000000     0.981140000000    -0.00558286 
C590     C      0.023110000000     0.250330000000     0.981470000000    -0.0054243  
C591     C      0.983690000000     0.273520000000     0.981650000000    -0.0866935  
C592     C      0.944260000000     0.250340000000     0.481530000000    -0.00467277 
C593     C      0.848610000000     0.843500000000     0.574360000000    -0.00363366 
C594     C      0.880740000000     0.874150000000     0.582380000000    -0.0828529  
C595     C      0.889800000000     0.880760000000     0.613450000000    -0.00455575 
C596     C      0.867430000000     0.857490000000     0.635850000000    -0.00957342 
C597     C      0.835250000000     0.826910000000     0.627900000000    -0.0732505  
C598     C      0.826140000000     0.820200000000     0.596830000000    -0.00982595 
C599     C      0.888580000000     0.881910000000     0.848730000000    -0.00539293 
C600     C      0.880580000000     0.874230000000     0.879820000000    -0.0829211  
C601     C      0.848820000000     0.843210000000     0.887850000000    -0.00459847 
C602     C      0.825740000000     0.820500000000     0.865380000000    -0.0100385  
C603     C      0.833840000000     0.828210000000     0.834290000000    -0.0760491  
C604     C      0.865580000000     0.859260000000     0.826320000000    -0.0108825  
C605     C      0.848600000000     0.111660000000     0.574420000000    -0.00367788 
C606     C      0.879080000000     0.079380000000     0.582450000000    -0.0828221  
C607     C      0.885640000000     0.070290000000     0.613510000000    -0.00432097 
C608     C      0.862560000000     0.092880000000     0.635910000000    -0.0095237  
C609     C      0.832250000000     0.125310000000     0.627950000000    -0.0730175  
C610     C      0.825500000000     0.134350000000     0.596880000000    -0.00995233 
C611     C      0.866370000000     0.096910000000     0.826390000000    -0.0107143  
C612     C      0.835060000000     0.128380000000     0.834350000000    -0.0759147  
C613     C      0.827360000000     0.136520000000     0.865440000000    -0.00996233 
C614     C      0.850260000000     0.113650000000     0.887920000000    -0.0045204  
C615     C      0.881450000000     0.082060000000     0.879890000000    -0.0828318  
C616     C      0.889210000000     0.074120000000     0.848810000000    -0.00513208 
C617     C      0.142050000000     0.134310000000     0.596850000000    -0.010025   
C618     C      0.135020000000     0.125500000000     0.627920000000    -0.0735725  
C619     C      0.104450000000     0.093300000000     0.635870000000    -0.0115591  
C620     C      0.081430000000     0.070690000000     0.613460000000    -0.00353132 
C621     C      0.088280000000     0.079540000000     0.582390000000    -0.0831499  
C622     C      0.118990000000     0.111600000000     0.574370000000    -0.00355824 
C623     C      0.117160000000     0.113540000000     0.887850000000    -0.0038887  
C624     C      0.085860000000     0.082050000000     0.879820000000    -0.0834472  
C625     C      0.077980000000     0.074230000000     0.848740000000    -0.00380919 
C626     C      0.100800000000     0.097040000000     0.826320000000    -0.0120596  
C627     C      0.132230000000     0.128400000000     0.834280000000    -0.0736933  
C628     C      0.140050000000     0.136420000000     0.865370000000    -0.0107446  
C629     C      0.119020000000     0.843630000000     0.574300000000    -0.00427816 
C630     C      0.088430000000     0.875810000000     0.582300000000    -0.082211   
C631     C      0.081710000000     0.884820000000     0.613360000000    -0.00538275 
C632     C      0.104730000000     0.862250000000     0.635790000000    -0.00865922 
C633     C      0.135170000000     0.829920000000     0.627860000000    -0.0754588  
C634     C      0.142080000000     0.820960000000     0.596790000000    -0.00882909 
C635     C      0.078170000000     0.881400000000     0.848630000000    -0.00583106 
C636     C      0.085880000000     0.873440000000     0.879720000000    -0.0826772  
C637     C      0.117050000000     0.841820000000     0.887750000000    -0.00465549 
C638     C      0.139960000000     0.818940000000     0.865280000000    -0.00971947 
C639     C      0.132310000000     0.827090000000     0.834190000000    -0.0756678  
C640     C      0.101020000000     0.858600000000     0.826220000000    -0.00965494 
H1       H      0.895640000000     0.977750000000     0.437430000000     0.210442   
H2       H      0.071720000000     0.977740000000     0.437300000000     0.210079   
H3       H      0.983870000000     0.889640000000     0.024790000000     0.211866   
H4       H      0.983730000000     0.065610000000     0.024950000000     0.211552   
H5       H      0.895740000000     0.477810000000     0.024780000000     0.211373   
H6       H      0.983680000000     0.389660000000     0.437340000000     0.210928   
H7       H      0.071810000000     0.477700000000     0.024620000000     0.211875   
H8       H      0.983650000000     0.565620000000     0.437210000000     0.210964   
H9       H      0.483710000000     0.065620000000     0.024950000000     0.211515   
H10      H      0.395730000000     0.977730000000     0.437300000000     0.210123   
H11      H      0.483590000000     0.889650000000     0.024810000000     0.211927   
H12      H      0.571810000000     0.977740000000     0.437440000000     0.210343   
H13      H      0.483780000000     0.389650000000     0.437340000000     0.211136   
H14      H      0.395650000000     0.477700000000     0.024620000000     0.211847   
H15      H      0.483800000000     0.565620000000     0.437200000000     0.21084    
H16      H      0.571710000000     0.477810000000     0.024760000000     0.211614   
H17      H      0.139320000000     0.227920000000     0.187500000000     0.211594   
H18      H      0.233370000000     0.132130000000     0.276650000000     0.20367    
H19      H      0.328120000000     0.227130000000     0.187500000000     0.211715   
H20      H      0.234080000000     0.323270000000     0.276440000000     0.204268   
H21      H      0.188980000000     0.072770000000     0.233890000000     0.125307   
H22      H      0.281410000000     0.066170000000     0.234380000000     0.186594   
H23      H      0.386570000000     0.143640000000     0.229360000000     0.140891   
H24      H      0.390490000000     0.285180000000     0.211870000000     0.202353   
H25      H      0.278560000000     0.382500000000     0.233770000000     0.125288   
H26      H      0.186040000000     0.389120000000     0.233600000000     0.186732   
H27      H      0.080860000000     0.311510000000     0.229230000000     0.140784   
H28      H      0.077070000000     0.169710000000     0.211690000000     0.203175   
H29      H      0.388960000000     0.271330000000     0.248740000000     0.212888   
H30      H      0.132270000000     0.382130000000     0.229980000000     0.196832   
H31      H      0.078380000000     0.184050000000     0.248460000000     0.213147   
H32      H      0.335100000000     0.073080000000     0.230100000000     0.196733   
H33      H      0.139330000000     0.728210000000     0.187450000000     0.211632   
H34      H      0.233370000000     0.632070000000     0.276400000000     0.204096   
H35      H      0.328130000000     0.727420000000     0.187460000000     0.211745   
H36      H      0.234080000000     0.823210000000     0.276610000000     0.203554   
H37      H      0.188900000000     0.572840000000     0.233670000000     0.125409   
H38      H      0.281460000000     0.566230000000     0.233820000000     0.18649    
H39      H      0.386600000000     0.643820000000     0.229280000000     0.139639   
H40      H      0.390390000000     0.785650000000     0.211640000000     0.202929   
H41      H      0.278480000000     0.882570000000     0.233900000000     0.125305   
H42      H      0.186050000000     0.889180000000     0.234110000000     0.186558   
H43      H      0.080880000000     0.811670000000     0.229160000000     0.139957   
H44      H      0.076970000000     0.670140000000     0.211830000000     0.203342   
H45      H      0.389070000000     0.771270000000     0.248410000000     0.212869   
H46      H      0.132310000000     0.882240000000     0.230260000000     0.196121   
H47      H      0.078500000000     0.684010000000     0.248690000000     0.21277    
H48      H      0.335150000000     0.573200000000     0.229670000000     0.196033   
H49      H      0.828130000000     0.227200000000     0.187560000000     0.210724   
H50      H      0.734020000000     0.323300000000     0.276490000000     0.204499   
H51      H      0.639340000000     0.227880000000     0.187540000000     0.211677   
H52      H      0.733420000000     0.132130000000     0.276690000000     0.204149   
H53      H      0.778270000000     0.382530000000     0.233780000000     0.126044   
H54      H      0.685870000000     0.389100000000     0.233880000000     0.186954   
H55      H      0.580800000000     0.311410000000     0.229400000000     0.140309   
H56      H      0.577110000000     0.169610000000     0.211720000000     0.202598   
H57      H      0.689080000000     0.072760000000     0.234070000000     0.125941   
H58      H      0.781230000000     0.066200000000     0.233830000000     0.186967   
H59      H      0.882280000000     0.186020000000     0.249140000000     0.149248   
H60      H      0.889870000000     0.281480000000     0.211350000000     0.200794   
H61      H      0.578420000000     0.183950000000     0.248500000000     0.213254   
H62      H      0.835120000000     0.073150000000     0.231040000000     0.203864   
H63      H      0.889630000000     0.275960000000     0.249290000000     0.204286   
H64      H      0.632170000000     0.382080000000     0.229800000000     0.195301   
H65      H      0.734080000000     0.822070000000     0.187620000000     0.211164   
H66      H      0.638140000000     0.727790000000     0.276560000000     0.204207   
H67      H      0.733390000000     0.633310000000     0.187390000000     0.211458   
H68      H      0.829330000000     0.727190000000     0.276550000000     0.204654   
H69      H      0.578820000000     0.772130000000     0.233850000000     0.12606    
H70      H      0.572270000000     0.679790000000     0.234210000000     0.186639   
H71      H      0.649880000000     0.574740000000     0.229160000000     0.139472   
H72      H      0.791850000000     0.571040000000     0.211520000000     0.203017   
H73      H      0.888650000000     0.682940000000     0.233890000000     0.126248   
H74      H      0.895220000000     0.775100000000     0.233460000000     0.18698    
H75      H      0.775530000000     0.876030000000     0.249480000000     0.148316   
H76      H      0.679700000000     0.883760000000     0.211450000000     0.201329   
H77      H      0.777300000000     0.572320000000     0.248260000000     0.21281    
H78      H      0.888250000000     0.828990000000     0.230780000000     0.203027   
H79      H      0.685530000000     0.883470000000     0.249360000000     0.204144   
H80      H      0.579250000000     0.626110000000     0.229990000000     0.19495    
H81      H      0.343210000000     0.334820000000     0.050560000000     0.0446812  
H82      H      0.410720000000     0.407430000000     0.120530000000     0.040823   
H83      H      0.370540000000     0.368550000000     0.159410000000     0.0453183  
H84      H      0.302780000000     0.295710000000     0.089670000000     0.0467478  
H85      H      0.302920000000     0.295730000000     0.372290000000     0.0458917  
H86      H      0.372670000000     0.366670000000     0.302550000000     0.0463766  
H87      H      0.411780000000     0.406570000000     0.341470000000     0.0407421  
H88      H      0.342260000000     0.335840000000     0.411420000000     0.0420218  
H89      H      0.343330000000     0.620760000000     0.050510000000     0.0448964  
H90      H      0.410400000000     0.547650000000     0.120440000000     0.0405965  
H91      H      0.370180000000     0.586450000000     0.159330000000     0.0388476  
H92      H      0.302890000000     0.659810000000     0.089630000000     0.0465084  
H93      H      0.342510000000     0.619590000000     0.411330000000     0.042171   
H94      H      0.411530000000     0.548410000000     0.341360000000     0.0402053  
H95      H      0.372340000000     0.588280000000     0.302450000000     0.039634   
H96      H      0.303110000000     0.659670000000     0.372220000000     0.0455647  
H97      H      0.552030000000     0.552560000000     0.120500000000     0.0403265  
H98      H      0.625570000000     0.619140000000     0.050570000000     0.0447436  
H99      H      0.665050000000     0.659180000000     0.089690000000     0.0464757  
H100     H      0.591260000000     0.592370000000     0.159390000000     0.0384245  
H101     H      0.626830000000     0.617790000000     0.411390000000     0.042224   
H102     H      0.556190000000     0.548180000000     0.341430000000     0.0400214  
H103     H      0.595640000000     0.587750000000     0.302520000000     0.0393717  
H104     H      0.666500000000     0.657580000000     0.372260000000     0.0456272  
H105     H      0.623990000000     0.334730000000     0.050640000000     0.0448054  
H106     H      0.556950000000     0.407780000000     0.120610000000     0.0402905  
H107     H      0.597200000000     0.368920000000     0.159480000000     0.0385952  
H108     H      0.664460000000     0.295640000000     0.089730000000     0.0464533  
H109     H      0.664420000000     0.295560000000     0.372310000000     0.0456876  
H110     H      0.595110000000     0.366980000000     0.302590000000     0.0398855  
H111     H      0.555980000000     0.406830000000     0.341520000000     0.0404926  
H112     H      0.625060000000     0.335640000000     0.411460000000     0.0422519  
H113     H      0.413260000000     0.767080000000     0.980650000000     0.0408609  
H114     H      0.554120000000     0.767090000000     0.480750000000     0.0424297  
H115     H      0.554130000000     0.688270000000     0.481270000000     0.0423743  
H116     H      0.413270000000     0.688270000000     0.981170000000     0.0408152  
H117     H      0.413330000000     0.188280000000     0.981010000000     0.0408394  
H118     H      0.554190000000     0.188270000000     0.481100000000     0.0423009  
H119     H      0.554190000000     0.267090000000     0.481630000000     0.0422957  
H120     H      0.413340000000     0.267090000000     0.981540000000     0.0408249  
H121     H      0.342060000000     0.835970000000     0.050620000000     0.0448373  
H122     H      0.409200000000     0.909050000000     0.120530000000     0.0420688  
H123     H      0.369410000000     0.869840000000     0.159450000000     0.0464243  
H124     H      0.302050000000     0.796530000000     0.089760000000     0.0470374  
H125     H      0.373740000000     0.865530000000     0.302600000000     0.0471046  
H126     H      0.303540000000     0.795110000000     0.372370000000     0.0455592  
H127     H      0.343300000000     0.834880000000     0.411480000000     0.0418043  
H128     H      0.413260000000     0.905080000000     0.341490000000     0.0414936  
H129     H      0.408940000000     0.045940000000     0.120600000000     0.0416436  
H130     H      0.342450000000     0.119610000000     0.050690000000     0.0449647  
H131     H      0.302350000000     0.158990000000     0.089810000000     0.0467169  
H132     H      0.369060000000     0.085090000000     0.159510000000     0.0397157  
H133     H      0.343510000000     0.120750000000     0.411520000000     0.0420083  
H134     H      0.412980000000     0.050020000000     0.341540000000     0.0411975  
H135     H      0.373390000000     0.089490000000     0.302640000000     0.0405946  
H136     H      0.303690000000     0.160440000000     0.372390000000     0.0453971  
H137     H      0.597970000000     0.085520000000     0.159590000000     0.046245   
H138     H      0.665350000000     0.158700000000     0.089840000000     0.0469623  
H139     H      0.625290000000     0.119250000000     0.050740000000     0.0447885  
H140     H      0.558120000000     0.046280000000     0.120700000000     0.0418691  
H141     H      0.554290000000     0.050340000000     0.341650000000     0.0416856  
H142     H      0.624300000000     0.120570000000     0.411600000000     0.0418587  
H143     H      0.664040000000     0.160310000000     0.372460000000     0.0456838  
H144     H      0.593780000000     0.089850000000     0.302740000000     0.0472328  
H145     H      0.553800000000     0.904640000000     0.120640000000     0.0421335  
H146     H      0.626370000000     0.837030000000     0.050690000000     0.0448897  
H147     H      0.665490000000     0.796660000000     0.089810000000     0.0470906  
H148     H      0.592690000000     0.864490000000     0.159540000000     0.0470844  
H149     H      0.625590000000     0.836140000000     0.411560000000     0.041773   
H150     H      0.555000000000     0.905740000000     0.341580000000     0.0417793  
H151     H      0.594850000000     0.866560000000     0.302680000000     0.0469567  
H152     H      0.665660000000     0.796700000000     0.372440000000     0.0454508  
H153     H      0.773150000000     0.407300000000     0.479730000000     0.0424191  
H154     H      0.773140000000     0.548140000000     0.979660000000     0.0408617  
H155     H      0.694310000000     0.548130000000     0.979650000000     0.0408904  
H156     H      0.694320000000     0.407300000000     0.479720000000     0.0423979  
H157     H      0.194320000000     0.407230000000     0.479370000000     0.0424133  
H158     H      0.194310000000     0.548060000000     0.979270000000     0.0410008  
H159     H      0.273140000000     0.548070000000     0.979270000000     0.0409684  
H160     H      0.273150000000     0.407230000000     0.479370000000     0.042409   
H161     H      0.910800000000     0.407490000000     0.120630000000     0.0416402  
H162     H      0.843250000000     0.334950000000     0.050640000000     0.0446473  
H163     H      0.802810000000     0.295820000000     0.089720000000     0.0467472  
H164     H      0.870590000000     0.368580000000     0.159490000000     0.0465628  
H165     H      0.911720000000     0.406570000000     0.341550000000     0.0417286  
H166     H      0.842150000000     0.335860000000     0.411500000000     0.0420424  
H167     H      0.802810000000     0.295760000000     0.372350000000     0.0457722  
H168     H      0.872620000000     0.366680000000     0.302630000000     0.0466668  
H169     H      0.842100000000     0.619380000000     0.050560000000     0.0446048  
H170     H      0.915170000000     0.552320000000     0.120510000000     0.042155   
H171     H      0.875890000000     0.592100000000     0.159400000000     0.0466833  
H172     H      0.802590000000     0.659390000000     0.089670000000     0.0467466  
H173     H      0.911030000000     0.547960000000     0.341460000000     0.0419884  
H174     H      0.840830000000     0.618020000000     0.411420000000     0.0420628  
H175     H      0.801130000000     0.657780000000     0.372290000000     0.0458971  
H176     H      0.871540000000     0.587490000000     0.302550000000     0.0477472  
H177     H      0.124380000000     0.620520000000     0.050500000000     0.0447098  
H178     H      0.056740000000     0.547980000000     0.120450000000     0.0418852  
H179     H      0.096910000000     0.586850000000     0.159340000000     0.0463165  
H180     H      0.164790000000     0.659630000000     0.089620000000     0.0468026  
H181     H      0.125150000000     0.619400000000     0.411350000000     0.042024   
H182     H      0.055660000000     0.548700000000     0.341380000000     0.0416064  
H183     H      0.094770000000     0.588620000000     0.302480000000     0.0472123  
H184     H      0.164510000000     0.659530000000     0.372240000000     0.0458098  
H185     H      0.123990000000     0.334580000000     0.050580000000     0.0448843  
H186     H      0.057060000000     0.407780000000     0.120520000000     0.0414592  
H187     H      0.097310000000     0.368960000000     0.159410000000     0.0396025  
H188     H      0.164460000000     0.295520000000     0.089690000000     0.0464903  
H189     H      0.095130000000     0.367030000000     0.302530000000     0.0404795  
H190     H      0.164370000000     0.295590000000     0.372270000000     0.045624   
H191     H      0.124970000000     0.335640000000     0.411400000000     0.0421948  
H192     H      0.055950000000     0.406870000000     0.341450000000     0.0412302  
H193     H      0.773140000000     0.048070000000     0.482610000000     0.0423909  
H194     H      0.773140000000     0.907230000000     0.982590000000     0.040775   
H195     H      0.694310000000     0.907230000000     0.982590000000     0.0407872  
H196     H      0.694310000000     0.048070000000     0.482620000000     0.0423947  
H197     H      0.273140000000     0.048140000000     0.982270000000     0.0409093  
H198     H      0.273140000000     0.907310000000     0.482200000000     0.0424086  
H199     H      0.194310000000     0.907310000000     0.482200000000     0.0424025  
H200     H      0.194310000000     0.048140000000     0.982260000000     0.040908   
H201     H      0.913340000000     0.767090000000     0.480700000000     0.0424442  
H202     H      0.054190000000     0.767080000000     0.980670000000     0.0408645  
H203     H      0.054190000000     0.688260000000     0.981200000000     0.0407989  
H204     H      0.913330000000     0.688270000000     0.481240000000     0.0423907  
H205     H      0.913250000000     0.188280000000     0.981120000000     0.040806   
H206     H      0.054110000000     0.188270000000     0.481010000000     0.0422776  
H207     H      0.054120000000     0.267080000000     0.481540000000     0.0422565  
H208     H      0.913260000000     0.267090000000     0.981650000000     0.0407622  
H209     H      0.840670000000     0.837440000000     0.050680000000     0.0449683  
H210     H      0.914280000000     0.903950000000     0.120610000000     0.0410299  
H211     H      0.875470000000     0.863700000000     0.159490000000     0.0435052  
H212     H      0.801610000000     0.796990000000     0.089780000000     0.0470346  
H213     H      0.912690000000     0.905480000000     0.341550000000     0.0403172  
H214     H      0.841660000000     0.836360000000     0.411550000000     0.0419059  
H215     H      0.801620000000     0.796880000000     0.372440000000     0.0452596  
H216     H      0.872870000000     0.866230000000     0.302660000000     0.0408762  
H217     H      0.842580000000     0.119630000000     0.050740000000     0.0448144  
H218     H      0.908690000000     0.045670000000     0.120670000000     0.0415705  
H219     H      0.868760000000     0.084840000000     0.159560000000     0.0440505  
H220     H      0.802460000000     0.159040000000     0.089830000000     0.04699    
H221     H      0.873370000000     0.089630000000     0.302730000000     0.0414389  
H222     H      0.803560000000     0.160480000000     0.372490000000     0.0453075  
H223     H      0.843350000000     0.120760000000     0.411620000000     0.0419357  
H224     H      0.912920000000     0.050150000000     0.341630000000     0.0407063  
H225     H      0.165280000000     0.158810000000     0.089800000000     0.0470046  
H226     H      0.098020000000     0.085470000000     0.159520000000     0.0460063  
H227     H      0.058190000000     0.046250000000     0.120620000000     0.0415823  
H228     H      0.125230000000     0.119380000000     0.050690000000     0.044813   
H229     H      0.124170000000     0.120550000000     0.411540000000     0.0418014  
H230     H      0.054180000000     0.050350000000     0.341560000000     0.0409281  
H231     H      0.093700000000     0.089870000000     0.302660000000     0.0466349  
H232     H      0.163940000000     0.160290000000     0.372420000000     0.0456108  
H233     H      0.125160000000     0.835740000000     0.050620000000     0.0450029  
H234     H      0.058570000000     0.909360000000     0.120510000000     0.0412275  
H235     H      0.098410000000     0.870210000000     0.159430000000     0.0393351  
H236     H      0.165220000000     0.796350000000     0.089760000000     0.046774   
H237     H      0.054480000000     0.905400000000     0.341450000000     0.0403784  
H238     H      0.123930000000     0.834680000000     0.411450000000     0.041976   
H239     H      0.163740000000     0.794960000000     0.372340000000     0.04532    
H240     H      0.094070000000     0.865900000000     0.302560000000     0.0397987  
H241     H      0.895640000000     0.977750000000     0.937430000000     0.21062    
H242     H      0.071720000000     0.977740000000     0.937290000000     0.210128   
H243     H      0.983870000000     0.889640000000     0.524790000000     0.210899   
H244     H      0.983730000000     0.065610000000     0.524950000000     0.210569   
H245     H      0.895740000000     0.477820000000     0.524780000000     0.210269   
H246     H      0.983680000000     0.389660000000     0.937350000000     0.211417   
H247     H      0.071810000000     0.477700000000     0.524620000000     0.210744   
H248     H      0.983650000000     0.565620000000     0.937210000000     0.211122   
H249     H      0.483700000000     0.065620000000     0.524950000000     0.210419   
H250     H      0.395730000000     0.977730000000     0.937300000000     0.210312   
H251     H      0.483590000000     0.889650000000     0.524810000000     0.210817   
H252     H      0.571810000000     0.977750000000     0.937440000000     0.210527   
H253     H      0.483780000000     0.389650000000     0.937340000000     0.211322   
H254     H      0.395650000000     0.477700000000     0.524620000000     0.210731   
H255     H      0.483800000000     0.565620000000     0.937190000000     0.210885   
H256     H      0.571720000000     0.477810000000     0.524760000000     0.210325   
H257     H      0.139320000000     0.227920000000     0.687500000000     0.21154    
H258     H      0.233370000000     0.132130000000     0.776650000000     0.203719   
H259     H      0.328130000000     0.227130000000     0.687500000000     0.211515   
H260     H      0.234080000000     0.323270000000     0.776440000000     0.204163   
H261     H      0.188980000000     0.072770000000     0.733890000000     0.125324   
H262     H      0.281410000000     0.066170000000     0.734370000000     0.186658   
H263     H      0.386570000000     0.143640000000     0.729360000000     0.140937   
H264     H      0.390490000000     0.285180000000     0.711870000000     0.202447   
H265     H      0.278560000000     0.382500000000     0.733770000000     0.125338   
H266     H      0.186040000000     0.389120000000     0.733600000000     0.186772   
H267     H      0.080850000000     0.311510000000     0.729230000000     0.140789   
H268     H      0.077070000000     0.169710000000     0.711690000000     0.203156   
H269     H      0.388960000000     0.271330000000     0.748740000000     0.213053   
H270     H      0.132270000000     0.382130000000     0.729980000000     0.196886   
H271     H      0.078380000000     0.184050000000     0.748460000000     0.213205   
H272     H      0.335100000000     0.073080000000     0.730100000000     0.196793   
H273     H      0.139330000000     0.728210000000     0.687450000000     0.21159    
H274     H      0.233380000000     0.632070000000     0.776400000000     0.204155   
H275     H      0.328130000000     0.727420000000     0.687460000000     0.211699   
H276     H      0.234080000000     0.823210000000     0.776610000000     0.203595   
H277     H      0.188900000000     0.572840000000     0.733670000000     0.125431   
H278     H      0.281460000000     0.566230000000     0.733820000000     0.186477   
H279     H      0.386600000000     0.643820000000     0.729280000000     0.139678   
H280     H      0.390380000000     0.785650000000     0.711640000000     0.203159   
H281     H      0.278480000000     0.882570000000     0.733900000000     0.125307   
H282     H      0.186050000000     0.889180000000     0.734110000000     0.186595   
H283     H      0.080880000000     0.811670000000     0.729160000000     0.139995   
H284     H      0.076970000000     0.670140000000     0.711830000000     0.20333    
H285     H      0.389070000000     0.771270000000     0.748410000000     0.212818   
H286     H      0.132310000000     0.882240000000     0.730260000000     0.196172   
H287     H      0.078500000000     0.684010000000     0.748690000000     0.212826   
H288     H      0.335160000000     0.573200000000     0.729670000000     0.195924   
H289     H      0.828130000000     0.227200000000     0.687560000000     0.210512   
H290     H      0.734020000000     0.323300000000     0.776490000000     0.204538   
H291     H      0.639340000000     0.227880000000     0.687540000000     0.211627   
H292     H      0.733420000000     0.132130000000     0.776690000000     0.204195   
H293     H      0.778270000000     0.382530000000     0.733780000000     0.126047   
H294     H      0.685870000000     0.389100000000     0.733880000000     0.18699    
H295     H      0.580800000000     0.311410000000     0.729400000000     0.140348   
H296     H      0.577110000000     0.169610000000     0.711720000000     0.202581   
H297     H      0.689080000000     0.072760000000     0.734070000000     0.12596    
H298     H      0.781230000000     0.066200000000     0.733830000000     0.186999   
H299     H      0.882280000000     0.186020000000     0.749140000000     0.149452   
H300     H      0.889870000000     0.281480000000     0.711350000000     0.200673   
H301     H      0.578420000000     0.183950000000     0.748500000000     0.213317   
H302     H      0.835120000000     0.073150000000     0.731040000000     0.203921   
H303     H      0.889630000000     0.275960000000     0.749280000000     0.204706   
H304     H      0.632170000000     0.382080000000     0.729800000000     0.195354   
H305     H      0.734080000000     0.822070000000     0.687620000000     0.21111    
H306     H      0.638140000000     0.727790000000     0.776560000000     0.204249   
H307     H      0.733390000000     0.633310000000     0.687390000000     0.211424   
H308     H      0.829330000000     0.727190000000     0.776550000000     0.204701   
H309     H      0.578820000000     0.772130000000     0.733850000000     0.126086   
H310     H      0.572270000000     0.679790000000     0.734210000000     0.186706   
H311     H      0.649880000000     0.574740000000     0.729160000000     0.139515   
H312     H      0.791850000000     0.571040000000     0.711520000000     0.202999   
H313     H      0.888650000000     0.682950000000     0.733890000000     0.12605    
H314     H      0.895220000000     0.775100000000     0.733460000000     0.18702    
H315     H      0.775530000000     0.876030000000     0.749480000000     0.148377   
H316     H      0.679700000000     0.883770000000     0.711450000000     0.201214   
H317     H      0.777300000000     0.572320000000     0.748260000000     0.212874   
H318     H      0.888250000000     0.828990000000     0.730780000000     0.203083   
H319     H      0.685530000000     0.883470000000     0.749360000000     0.204167   
H320     H      0.579250000000     0.626120000000     0.729990000000     0.195147   
H321     H      0.343210000000     0.334820000000     0.550560000000     0.0419399  
H322     H      0.410720000000     0.407430000000     0.620520000000     0.0406048  
H323     H      0.370540000000     0.368550000000     0.659410000000     0.0453889  
H324     H      0.302780000000     0.295710000000     0.589670000000     0.0457558  
H325     H      0.302920000000     0.295730000000     0.872290000000     0.0456958  
H326     H      0.372670000000     0.366670000000     0.802550000000     0.0464452  
H327     H      0.411780000000     0.406570000000     0.841460000000     0.0408549  
H328     H      0.342260000000     0.335840000000     0.911420000000     0.0416612  
H329     H      0.343340000000     0.620760000000     0.550510000000     0.0421642  
H330     H      0.410400000000     0.547640000000     0.620440000000     0.0403499  
H331     H      0.370180000000     0.586450000000     0.659330000000     0.0389323  
H332     H      0.302890000000     0.659820000000     0.589630000000     0.0455259  
H333     H      0.342510000000     0.619590000000     0.911330000000     0.041826   
H334     H      0.411530000000     0.548410000000     0.841360000000     0.0403547  
H335     H      0.372340000000     0.588280000000     0.802450000000     0.0396904  
H336     H      0.303110000000     0.659680000000     0.872220000000     0.0453555  
H337     H      0.552030000000     0.552560000000     0.620500000000     0.0400782  
H338     H      0.625570000000     0.619140000000     0.550570000000     0.0420014  
H339     H      0.665050000000     0.659180000000     0.589690000000     0.0454785  
H340     H      0.591260000000     0.592380000000     0.659390000000     0.0385056  
H341     H      0.626830000000     0.617790000000     0.911390000000     0.0418665  
H342     H      0.556190000000     0.548180000000     0.841440000000     0.0401562  
H343     H      0.595640000000     0.587750000000     0.802520000000     0.0394339  
H344     H      0.666500000000     0.657580000000     0.872260000000     0.0454484  
H345     H      0.624000000000     0.334730000000     0.550640000000     0.0420811  
H346     H      0.556950000000     0.407770000000     0.620610000000     0.0400694  
H347     H      0.597200000000     0.368920000000     0.659480000000     0.038656   
H348     H      0.664460000000     0.295640000000     0.589730000000     0.0454457  
H349     H      0.664420000000     0.295560000000     0.872310000000     0.045514   
H350     H      0.595110000000     0.366980000000     0.802590000000     0.0399616  
H351     H      0.555970000000     0.406830000000     0.841520000000     0.0406071  
H352     H      0.625060000000     0.335630000000     0.911460000000     0.0418826  
H353     H      0.413260000000     0.767080000000     0.480650000000     0.0423041  
H354     H      0.554120000000     0.767090000000     0.980750000000     0.040968   
H355     H      0.554130000000     0.688280000000     0.981280000000     0.0409147  
H356     H      0.413270000000     0.688260000000     0.481180000000     0.0422558  
H357     H      0.413330000000     0.188280000000     0.481010000000     0.042274   
H358     H      0.554190000000     0.188270000000     0.981100000000     0.0408619  
H359     H      0.554190000000     0.267090000000     0.981640000000     0.0408139  
H360     H      0.413340000000     0.267090000000     0.481540000000     0.042303   
H361     H      0.342060000000     0.835970000000     0.550620000000     0.042099   
H362     H      0.409200000000     0.909050000000     0.620530000000     0.0418361  
H363     H      0.369410000000     0.869840000000     0.659450000000     0.0465029  
H364     H      0.302050000000     0.796530000000     0.589760000000     0.0460398  
H365     H      0.373740000000     0.865530000000     0.802600000000     0.0471761  
H366     H      0.303540000000     0.795110000000     0.872370000000     0.0453643  
H367     H      0.343300000000     0.834880000000     0.911480000000     0.0414532  
H368     H      0.413260000000     0.905080000000     0.841490000000     0.0416116  
H369     H      0.408940000000     0.045940000000     0.620600000000     0.0414254  
H370     H      0.342450000000     0.119610000000     0.550690000000     0.0422325  
H371     H      0.302350000000     0.158990000000     0.589810000000     0.0457116  
H372     H      0.369060000000     0.085090000000     0.659510000000     0.0397714  
H373     H      0.343510000000     0.120750000000     0.911510000000     0.041663   
H374     H      0.412980000000     0.050020000000     0.841540000000     0.0413122  
H375     H      0.373390000000     0.089490000000     0.802630000000     0.0406418  
H376     H      0.303690000000     0.160440000000     0.872390000000     0.0451863  
H377     H      0.597970000000     0.085520000000     0.659590000000     0.0463068  
H378     H      0.665350000000     0.158700000000     0.589840000000     0.0459503  
H379     H      0.625290000000     0.119250000000     0.550740000000     0.0420582  
H380     H      0.558120000000     0.046280000000     0.620700000000     0.0416504  
H381     H      0.554290000000     0.050340000000     0.841650000000     0.0418023  
H382     H      0.624300000000     0.120570000000     0.911600000000     0.0414966  
H383     H      0.664040000000     0.160310000000     0.872460000000     0.045477   
H384     H      0.593780000000     0.089850000000     0.802740000000     0.0472989  
H385     H      0.553790000000     0.904640000000     0.620640000000     0.0418894  
H386     H      0.626370000000     0.837040000000     0.550700000000     0.0421726  
H387     H      0.665490000000     0.796660000000     0.589800000000     0.0460716  
H388     H      0.592690000000     0.864480000000     0.659530000000     0.0471776  
H389     H      0.625590000000     0.836140000000     0.911560000000     0.0414283  
H390     H      0.555000000000     0.905740000000     0.841580000000     0.0418975  
H391     H      0.594850000000     0.866560000000     0.802680000000     0.0470263  
H392     H      0.665660000000     0.796700000000     0.872440000000     0.0452272  
H393     H      0.773150000000     0.407300000000     0.979720000000     0.0409781  
H394     H      0.773140000000     0.548130000000     0.479660000000     0.0423107  
H395     H      0.694310000000     0.548130000000     0.479650000000     0.0422839  
H396     H      0.694320000000     0.407300000000     0.979720000000     0.041001   
H397     H      0.194320000000     0.407230000000     0.979380000000     0.041003   
H398     H      0.194310000000     0.548070000000     0.479270000000     0.0423978  
H399     H      0.273140000000     0.548070000000     0.479270000000     0.0423894  
H400     H      0.273150000000     0.407230000000     0.979370000000     0.0409817  
H401     H      0.910800000000     0.407490000000     0.620630000000     0.0414154  
H402     H      0.843240000000     0.334950000000     0.550640000000     0.041912   
H403     H      0.802810000000     0.295820000000     0.589720000000     0.0457427  
H404     H      0.870590000000     0.368580000000     0.659490000000     0.0466338  
H405     H      0.911720000000     0.406560000000     0.841550000000     0.0418284  
H406     H      0.842150000000     0.335860000000     0.911500000000     0.0416542  
H407     H      0.802810000000     0.295760000000     0.872350000000     0.0455839  
H408     H      0.872620000000     0.366680000000     0.802630000000     0.0467568  
H409     H      0.842100000000     0.619380000000     0.550560000000     0.0418845  
H410     H      0.915160000000     0.552310000000     0.620510000000     0.0419255  
H411     H      0.875890000000     0.592100000000     0.659400000000     0.0467612  
H412     H      0.802590000000     0.659390000000     0.589670000000     0.0457301  
H413     H      0.911030000000     0.547960000000     0.841460000000     0.0420948  
H414     H      0.840830000000     0.618020000000     0.911420000000     0.0416945  
H415     H      0.801130000000     0.657780000000     0.872290000000     0.0457061  
H416     H      0.871540000000     0.587490000000     0.802550000000     0.0478329  
H417     H      0.124380000000     0.620520000000     0.550500000000     0.0420062  
H418     H      0.056740000000     0.547980000000     0.620450000000     0.0416692  
H419     H      0.096910000000     0.586850000000     0.659340000000     0.0463841  
H420     H      0.164790000000     0.659630000000     0.589620000000     0.0458003  
H421     H      0.125150000000     0.619400000000     0.911360000000     0.041647   
H422     H      0.055660000000     0.548700000000     0.841380000000     0.0417245  
H423     H      0.094780000000     0.588620000000     0.802480000000     0.0472741  
H424     H      0.164510000000     0.659540000000     0.872240000000     0.0456147  
H425     H      0.123990000000     0.334580000000     0.550580000000     0.042149   
H426     H      0.057060000000     0.407780000000     0.620520000000     0.0412203  
H427     H      0.097310000000     0.368960000000     0.659410000000     0.0396882  
H428     H      0.164460000000     0.295520000000     0.589690000000     0.0455008  
H429     H      0.095130000000     0.367030000000     0.802530000000     0.0405343  
H430     H      0.164370000000     0.295590000000     0.872270000000     0.045416   
H431     H      0.124970000000     0.335650000000     0.911400000000     0.0418428  
H432     H      0.055950000000     0.406870000000     0.841450000000     0.0413537  
H433     H      0.773140000000     0.048070000000     0.982610000000     0.0409046  
H434     H      0.773140000000     0.907230000000     0.482590000000     0.0422665  
H435     H      0.694310000000     0.907230000000     0.482590000000     0.0422816  
H436     H      0.694310000000     0.048070000000     0.982620000000     0.0408996  
H437     H      0.273140000000     0.048140000000     0.482270000000     0.0423925  
H438     H      0.273140000000     0.907310000000     0.982200000000     0.0409305  
H439     H      0.194310000000     0.907300000000     0.982200000000     0.040901   
H440     H      0.194310000000     0.048140000000     0.482260000000     0.0423953  
H441     H      0.913340000000     0.767090000000     0.980700000000     0.0409996  
H442     H      0.054190000000     0.767080000000     0.480670000000     0.0423087  
H443     H      0.054190000000     0.688260000000     0.481200000000     0.0422697  
H444     H      0.913330000000     0.688280000000     0.981240000000     0.0409203  
H445     H      0.913250000000     0.188280000000     0.481120000000     0.0422388  
H446     H      0.054110000000     0.188270000000     0.981010000000     0.0408479  
H447     H      0.054120000000     0.267080000000     0.981540000000     0.0407759  
H448     H      0.913260000000     0.267090000000     0.481650000000     0.0422631  
H449     H      0.840670000000     0.837440000000     0.550680000000     0.0422315  
H450     H      0.914280000000     0.903950000000     0.620610000000     0.0408066  
H451     H      0.875470000000     0.863700000000     0.659490000000     0.0435583  
H452     H      0.801610000000     0.796990000000     0.589780000000     0.0460352  
H453     H      0.912690000000     0.905480000000     0.841550000000     0.0404331  
H454     H      0.841660000000     0.836360000000     0.911550000000     0.0415165  
H455     H      0.801620000000     0.796880000000     0.872440000000     0.0450766  
H456     H      0.872870000000     0.866230000000     0.802660000000     0.0409565  
H457     H      0.842580000000     0.119630000000     0.550740000000     0.0420678  
H458     H      0.908690000000     0.045670000000     0.620670000000     0.041335   
H459     H      0.868760000000     0.084840000000     0.659560000000     0.0441197  
H460     H      0.802460000000     0.159040000000     0.589830000000     0.0459916  
H461     H      0.873370000000     0.089630000000     0.802730000000     0.0415118  
H462     H      0.803560000000     0.160480000000     0.872490000000     0.045118   
H463     H      0.843350000000     0.120760000000     0.911620000000     0.0415751  
H464     H      0.912920000000     0.050150000000     0.841630000000     0.0408195  
H465     H      0.165280000000     0.158810000000     0.589800000000     0.0460108  
H466     H      0.098020000000     0.085470000000     0.659520000000     0.046082   
H467     H      0.058190000000     0.046250000000     0.620620000000     0.0413495  
H468     H      0.125230000000     0.119380000000     0.550690000000     0.0420732  
H469     H      0.124170000000     0.120550000000     0.911540000000     0.0414406  
H470     H      0.054180000000     0.050350000000     0.841560000000     0.0410413  
H471     H      0.093700000000     0.089870000000     0.802660000000     0.0467081  
H472     H      0.163940000000     0.160290000000     0.872420000000     0.0454166  
H473     H      0.125160000000     0.835740000000     0.550620000000     0.0422724  
H474     H      0.058570000000     0.909360000000     0.620510000000     0.0410011  
H475     H      0.098410000000     0.870210000000     0.659430000000     0.0393944  
H476     H      0.165220000000     0.796350000000     0.589760000000     0.045775   
H477     H      0.054480000000     0.905390000000     0.841450000000     0.0404941  
H478     H      0.123930000000     0.834680000000     0.911450000000     0.0416102  
H479     H      0.163740000000     0.794960000000     0.872340000000     0.0451275  
H480     H      0.094070000000     0.865900000000     0.802560000000     0.0398726  
O1       O      0.070720000000     0.889560000000     0.431670000000    -0.364388   
O2       O      0.896650000000     0.065890000000     0.431850000000    -0.364157   
O3       O      0.933390000000     0.926990000000     0.394600000000    -0.363777   
O4       O      0.033570000000     0.028790000000     0.394610000000    -0.363671   
O5       O      0.070670000000     0.065910000000     0.431770000000    -0.36433    
O6       O      0.896300000000     0.889860000000     0.431770000000    -0.3642     
O7       O      0.933760000000     0.028830000000     0.394660000000    -0.363582   
O8       O      0.033540000000     0.926660000000     0.394530000000    -0.363717   
O9       O      0.983670000000     0.039790000000     0.450120000000    -0.505487   
O10      O      0.983690000000     0.915570000000     0.450040000000    -0.505522   
O11      O      0.921390000000     0.977700000000     0.450030000000    -0.65107    
O12      O      0.046010000000     0.977720000000     0.449950000000    -0.650797   
O13      O      0.895520000000     0.064540000000     0.030510000000    -0.357091   
O14      O      0.072020000000     0.890710000000     0.030340000000    -0.35669    
O15      O      0.846930000000     0.940390000000     0.981960000000    -0.370296   
O16      O      0.020960000000     0.114490000000     0.480870000000    -0.369008   
O17      O      0.120510000000     0.014980000000     0.481690000000    -0.368817   
O18      O      0.946490000000     0.840860000000     0.980590000000    -0.370163   
O19      O      0.933280000000     0.927130000000     0.067600000000    -0.363      
O20      O      0.034870000000     0.027420000000     0.067600000000    -0.362717   
O21      O      0.896020000000     0.890180000000     0.030430000000    -0.356918   
O22      O      0.071940000000     0.064580000000     0.030440000000    -0.35689    
O23      O      0.846920000000     0.014920000000     0.481850000000    -0.368878   
O24      O      0.021040000000     0.840870000000     0.980680000000    -0.370258   
O25      O      0.120530000000     0.940450000000     0.981630000000    -0.370246   
O26      O      0.946420000000     0.114480000000     0.480920000000    -0.36905    
O27      O      0.932510000000     0.027260000000     0.067650000000    -0.362876   
O28      O      0.035030000000     0.927910000000     0.067530000000    -0.362538   
O29      O      0.045790000000     0.977650000000     0.012040000000    -0.495883   
O30      O      0.921640000000     0.977620000000     0.012130000000    -0.495996   
O31      O      0.983790000000     0.915370000000     0.012160000000    -0.64247    
O32      O      0.983730000000     0.039940000000     0.012260000000    -0.642412   
O33      O      0.020970000000     0.340860000000     0.981540000000    -0.370289   
O34      O      0.846930000000     0.514980000000     0.480380000000    -0.368925   
O35      O      0.896330000000     0.389960000000     0.030420000000    -0.357551   
O36      O      0.895870000000     0.390290000000     0.431760000000    -0.363774   
O37      O      0.932910000000     0.427440000000     0.394570000000    -0.363464   
O38      O      0.933480000000     0.427080000000     0.067570000000    -0.36277    
O39      O      0.846930000000     0.440450000000     0.480290000000    -0.368798   
O40      O      0.946430000000     0.340880000000     0.481600000000    -0.369003   
O41      O      0.921620000000     0.477650000000     0.450040000000    -0.505328   
O42      O      0.983760000000     0.415540000000     0.012080000000    -0.495891   
O43      O      0.921470000000     0.477740000000     0.012140000000    -0.642333   
O44      O      0.983690000000     0.415400000000     0.449960000000    -0.651501   
O45      O      0.946480000000     0.614490000000     0.481270000000    -0.368968   
O46      O      0.120530000000     0.440380000000     0.980110000000    -0.370097   
O47      O      0.934150000000     0.529080000000     0.067490000000    -0.36232    
O48      O      0.932520000000     0.527370000000     0.394510000000    -0.363576   
O49      O      0.034500000000     0.427510000000     0.394500000000    -0.363522   
O50      O      0.034050000000     0.426980000000     0.067500000000    -0.36252    
O51      O      0.071230000000     0.565500000000     0.030250000000    -0.357385   
O52      O      0.071500000000     0.565000000000     0.431580000000    -0.364066   
O53      O      0.034140000000     0.528420000000     0.067440000000    -0.362312   
O54      O      0.034430000000     0.527780000000     0.394450000000    -0.36377    
O55      O      0.896800000000     0.565960000000     0.030320000000    -0.357409   
O56      O      0.071200000000     0.389910000000     0.030330000000    -0.357316   
O57      O      0.071490000000     0.390250000000     0.431660000000    -0.363761   
O58      O      0.895540000000     0.564630000000     0.431660000000    -0.363976   
O59      O      0.021020000000     0.614480000000     0.981370000000    -0.370223   
O60      O      0.120530000000     0.514920000000     0.980060000000    -0.370096   
O61      O      0.045840000000     0.477630000000     0.449960000000    -0.505376   
O62      O      0.983780000000     0.539820000000     0.011990000000    -0.495896   
O63      O      0.046030000000     0.477700000000     0.012040000000    -0.642559   
O64      O      0.983700000000     0.539930000000     0.449870000000    -0.651626   
O65      O      0.346920000000     0.940450000000     0.981640000000    -0.370277   
O66      O      0.521030000000     0.114480000000     0.480920000000    -0.369062   
O67      O      0.395500000000     0.064580000000     0.030440000000    -0.356838   
O68      O      0.396780000000     0.065890000000     0.431760000000    -0.364058   
O69      O      0.433870000000     0.028750000000     0.394590000000    -0.363316   
O70      O      0.432550000000     0.027410000000     0.067600000000    -0.362717   
O71      O      0.446490000000     0.114500000000     0.480870000000    -0.369075   
O72      O      0.346930000000     0.014980000000     0.481690000000    -0.368789   
O73      O      0.483780000000     0.039790000000     0.450120000000    -0.505509   
O74      O      0.421660000000     0.977660000000     0.012040000000    -0.496085   
O75      O      0.483710000000     0.039950000000     0.012260000000    -0.642326   
O76      O      0.421440000000     0.977710000000     0.449950000000    -0.65087    
O77      O      0.620530000000     0.014920000000     0.481860000000    -0.368817   
O78      O      0.446420000000     0.840870000000     0.980700000000    -0.370293   
O79      O      0.534890000000     0.027320000000     0.067660000000    -0.36277    
O80      O      0.533680000000     0.028830000000     0.394670000000    -0.363256   
O81      O      0.433930000000     0.926620000000     0.394560000000    -0.363505   
O82      O      0.432440000000     0.927900000000     0.067540000000    -0.362544   
O83      O      0.571450000000     0.890210000000     0.030450000000    -0.357034   
O84      O      0.571160000000     0.889860000000     0.431790000000    -0.364221   
O85      O      0.534220000000     0.927210000000     0.067620000000    -0.362686   
O86      O      0.534070000000     0.926990000000     0.394620000000    -0.363441   
O87      O      0.571910000000     0.064570000000     0.030520000000    -0.357049   
O88      O      0.395440000000     0.890720000000     0.030360000000    -0.356957   
O89      O      0.396730000000     0.889550000000     0.431700000000    -0.364371   
O90      O      0.570810000000     0.065890000000     0.431860000000    -0.364132   
O91      O      0.620520000000     0.940390000000     0.981970000000    -0.370294   
O92      O      0.520970000000     0.840860000000     0.980610000000    -0.370058   
O93      O      0.483760000000     0.915560000000     0.450060000000    -0.505436   
O94      O      0.545810000000     0.977630000000     0.012140000000    -0.496042   
O95      O      0.483670000000     0.915370000000     0.012170000000    -0.642554   
O96      O      0.546060000000     0.977700000000     0.450050000000    -0.651007   
O97      O      0.346920000000     0.514920000000     0.980050000000    -0.370102   
O98      O      0.521030000000     0.340870000000     0.481590000000    -0.369021   
O99      O      0.395960000000     0.390240000000     0.431670000000    -0.36399    
O100     O      0.396250000000     0.389900000000     0.030330000000    -0.357493   
O101     O      0.433430000000     0.426950000000     0.067500000000    -0.362895   
O102     O      0.432960000000     0.427480000000     0.394510000000    -0.363982   
O103     O      0.446490000000     0.340860000000     0.481540000000    -0.369044   
O104     O      0.346930000000     0.440390000000     0.480110000000    -0.36886    
O105     O      0.483700000000     0.415540000000     0.012070000000    -0.495946   
O106     O      0.421610000000     0.477630000000     0.449960000000    -0.505293   
O107     O      0.483760000000     0.415390000000     0.449950000000    -0.651457   
O108     O      0.421420000000     0.477700000000     0.012030000000    -0.642537   
O109     O      0.620530000000     0.440440000000     0.480270000000    -0.368827   
O110     O      0.446440000000     0.614490000000     0.981370000000    -0.370326   
O111     O      0.534540000000     0.427450000000     0.394550000000    -0.363805   
O112     O      0.534000000000     0.427090000000     0.067560000000    -0.363128   
O113     O      0.433310000000     0.528390000000     0.067440000000    -0.362731   
O114     O      0.433010000000     0.527760000000     0.394430000000    -0.364093   
O115     O      0.571920000000     0.564610000000     0.431640000000    -0.3638     
O116     O      0.570660000000     0.565940000000     0.030320000000    -0.357359   
O117     O      0.534920000000     0.527370000000     0.394490000000    -0.363988   
O118     O      0.533300000000     0.529080000000     0.067480000000    -0.362848   
O119     O      0.571580000000     0.390280000000     0.431730000000    -0.363602   
O120     O      0.395960000000     0.564990000000     0.431570000000    -0.363932   
O121     O      0.396230000000     0.565500000000     0.030250000000    -0.35723    
O122     O      0.571130000000     0.389960000000     0.030410000000    -0.357568   
O123     O      0.620530000000     0.514980000000     0.980370000000    -0.370215   
O124     O      0.520980000000     0.614490000000     0.981260000000    -0.370374   
O125     O      0.483680000000     0.539810000000     0.011980000000    -0.495872   
O126     O      0.545840000000     0.477650000000     0.450030000000    -0.505207   
O127     O      0.483760000000     0.539930000000     0.449860000000    -0.65129    
O128     O      0.545990000000     0.477740000000     0.012130000000    -0.642478   
O129     O      0.148310000000     0.314110000000     0.282020000000    -0.350966   
O130     O      0.185400000000     0.274930000000     0.318170000000    -0.339162   
O131     O      0.150330000000     0.139240000000     0.180030000000    -0.34882    
O132     O      0.186000000000     0.179770000000     0.143920000000    -0.338784   
O133     O      0.147830000000     0.141760000000     0.282170000000    -0.349102   
O134     O      0.185010000000     0.180950000000     0.318260000000    -0.339096   
O135     O      0.150090000000     0.315710000000     0.179900000000    -0.351583   
O136     O      0.185890000000     0.275210000000     0.143840000000    -0.339297   
O137     O      0.093070000000     0.281740000000     0.230260000000    -0.336171   
O138     O      0.161200000000     0.370050000000     0.231610000000    -0.515464   
O139     O      0.093290000000     0.174530000000     0.230250000000    -0.512415   
O140     O      0.159380000000     0.085180000000     0.231930000000    -0.327898   
O141     O      0.164380000000     0.228010000000     0.261760000000    -0.459047   
O142     O      0.164650000000     0.227890000000     0.200550000000    -0.608195   
O143     O      0.317490000000     0.315550000000     0.179900000000    -0.349074   
O144     O      0.281700000000     0.275040000000     0.143840000000    -0.338962   
O145     O      0.319460000000     0.141620000000     0.282140000000    -0.350959   
O146     O      0.282290000000     0.180790000000     0.318250000000    -0.33935    
O147     O      0.316990000000     0.139090000000     0.180030000000    -0.351305   
O148     O      0.281300000000     0.179610000000     0.143920000000    -0.339049   
O149     O      0.319300000000     0.313960000000     0.282040000000    -0.349346   
O150     O      0.282200000000     0.274770000000     0.318180000000    -0.338884   
O151     O      0.374150000000     0.280630000000     0.230430000000    -0.511845   
O152     O      0.308110000000     0.370060000000     0.231540000000    -0.328245   
O153     O      0.374370000000     0.173440000000     0.230080000000    -0.335973   
O154     O      0.306210000000     0.085200000000     0.232000000000    -0.515335   
O155     O      0.302800000000     0.227250000000     0.200550000000    -0.608225   
O156     O      0.303070000000     0.227340000000     0.261760000000    -0.459004   
O157     O      0.234060000000     0.298200000000     0.198160000000    -0.474297   
O158     O      0.233410000000     0.157430000000     0.263580000000    -0.62303    
O159     O      0.234040000000     0.297890000000     0.263450000000    -0.623059   
O160     O      0.233390000000     0.157000000000     0.198280000000    -0.474018   
O161     O      0.147990000000     0.813740000000     0.282090000000    -0.351251   
O162     O      0.185150000000     0.774570000000     0.318200000000    -0.339359   
O163     O      0.149990000000     0.639800000000     0.179850000000    -0.348845   
O164     O      0.185780000000     0.680310000000     0.143790000000    -0.339063   
O165     O      0.148150000000     0.641350000000     0.281990000000    -0.349128   
O166     O      0.185240000000     0.680530000000     0.318130000000    -0.338892   
O167     O      0.150480000000     0.816250000000     0.179980000000    -0.351319   
O168     O      0.186180000000     0.775720000000     0.143880000000    -0.339213   
O169     O      0.093080000000     0.781880000000     0.230030000000    -0.336563   
O170     O      0.161230000000     0.870130000000     0.231950000000    -0.515331   
O171     O      0.093300000000     0.674700000000     0.230380000000    -0.512009   
O172     O      0.159350000000     0.585270000000     0.231490000000    -0.327528   
O173     O      0.164380000000     0.728000000000     0.261720000000    -0.459073   
O174     O      0.164650000000     0.728080000000     0.200510000000    -0.608215   
O175     O      0.317100000000     0.816090000000     0.179980000000    -0.34869    
O176     O      0.281420000000     0.775560000000     0.143880000000    -0.338907   
O177     O      0.319150000000     0.641210000000     0.281970000000    -0.351321   
O178     O      0.282070000000     0.680380000000     0.318120000000    -0.339245   
O179     O      0.317350000000     0.639650000000     0.179850000000    -0.351626   
O180     O      0.281540000000     0.680150000000     0.143800000000    -0.339361   
O181     O      0.319620000000     0.813600000000     0.282120000000    -0.349049   
O182     O      0.282450000000     0.774410000000     0.318220000000    -0.339064   
O183     O      0.374160000000     0.780810000000     0.230210000000    -0.511983   
O184     O      0.308070000000     0.870160000000     0.231890000000    -0.327528   
O185     O      0.374390000000     0.673600000000     0.230210000000    -0.336577   
O186     O      0.306260000000     0.585290000000     0.231560000000    -0.515379   
O187     O      0.302810000000     0.727450000000     0.200510000000    -0.608302   
O188     O      0.303070000000     0.727330000000     0.261720000000    -0.459162   
O189     O      0.234060000000     0.798340000000     0.198240000000    -0.473991   
O190     O      0.233420000000     0.657450000000     0.263400000000    -0.622923   
O191     O      0.234040000000     0.797900000000     0.263540000000    -0.622859   
O192     O      0.233390000000     0.657130000000     0.198120000000    -0.474325   
O193     O      0.819380000000     0.141690000000     0.282240000000    -0.354787   
O194     O      0.782250000000     0.180890000000     0.318340000000    -0.340161   
O195     O      0.817490000000     0.315620000000     0.179960000000    -0.348319   
O196     O      0.781730000000     0.275090000000     0.143890000000    -0.338732   
O197     O      0.819220000000     0.314020000000     0.282110000000    -0.350451   
O198     O      0.782160000000     0.274780000000     0.318230000000    -0.339429   
O199     O      0.816860000000     0.139020000000     0.180060000000    -0.343472   
O200     O      0.781290000000     0.179630000000     0.143940000000    -0.338349   
O201     O      0.874600000000     0.172320000000     0.229430000000    -0.340526   
O202     O      0.806140000000     0.085240000000     0.232170000000    -0.51303    
O203     O      0.874170000000     0.281050000000     0.230430000000    -0.513565   
O204     O      0.807870000000     0.370180000000     0.231610000000    -0.326438   
O205     O      0.803100000000     0.227410000000     0.261800000000    -0.468162   
O206     O      0.802810000000     0.227320000000     0.200610000000    -0.609928   
O207     O      0.650370000000     0.139210000000     0.180080000000    -0.348657   
O208     O      0.686010000000     0.179760000000     0.143960000000    -0.338689   
O209     O      0.648280000000     0.314080000000     0.282070000000    -0.350929   
O210     O      0.685410000000     0.274920000000     0.318200000000    -0.339115   
O211     O      0.650040000000     0.315700000000     0.179960000000    -0.351783   
O212     O      0.685880000000     0.275240000000     0.143890000000    -0.339205   
O213     O      0.647900000000     0.141740000000     0.282220000000    -0.34894    
O214     O      0.685060000000     0.180970000000     0.318300000000    -0.338967   
O215     O      0.593340000000     0.174440000000     0.230290000000    -0.511974   
O216     O      0.659490000000     0.085140000000     0.231970000000    -0.327069   
O217     O      0.593040000000     0.281640000000     0.230300000000    -0.335912   
O218     O      0.661090000000     0.370020000000     0.231660000000    -0.515332   
O219     O      0.664660000000     0.227860000000     0.200590000000    -0.608241   
O220     O      0.664380000000     0.227980000000     0.261800000000    -0.458914   
O221     O      0.733450000000     0.157000000000     0.198310000000    -0.473691   
O222     O      0.733990000000     0.297920000000     0.263490000000    -0.622653   
O223     O      0.733460000000     0.157440000000     0.263620000000    -0.623053   
O224     O      0.734020000000     0.298230000000     0.198200000000    -0.473993   
O225     O      0.820120000000     0.812920000000     0.282190000000    -0.355012   
O226     O      0.780870000000     0.775840000000     0.318290000000    -0.3402     
O227     O      0.645690000000     0.811390000000     0.180030000000    -0.348064   
O228     O      0.686200000000     0.775680000000     0.143920000000    -0.338542   
O229     O      0.647400000000     0.813070000000     0.282180000000    -0.350517   
O230     O      0.686680000000     0.775990000000     0.318270000000    -0.339642   
O231     O      0.821960000000     0.811130000000     0.179990000000    -0.34376    
O232     O      0.781390000000     0.775500000000     0.143890000000    -0.338515   
O233     O      0.789030000000     0.868480000000     0.229680000000    -0.34092    
O234     O      0.876170000000     0.800010000000     0.231900000000    -0.51296    
O235     O      0.680290000000     0.868040000000     0.230520000000    -0.513667   
O236     O      0.591170000000     0.801730000000     0.231720000000    -0.326212   
O237     O      0.734010000000     0.796950000000     0.261820000000    -0.468468   
O238     O      0.733990000000     0.796730000000     0.200640000000    -0.610085   
O239     O      0.822140000000     0.644370000000     0.179910000000    -0.348678   
O240     O      0.781530000000     0.680040000000     0.143840000000    -0.338899   
O241     O      0.647740000000     0.641760000000     0.282020000000    -0.351172   
O242     O      0.686820000000     0.678950000000     0.318160000000    -0.339145   
O243     O      0.645240000000     0.644410000000     0.179920000000    -0.351601   
O244     O      0.685780000000     0.680160000000     0.143850000000    -0.339169   
O245     O      0.819670000000     0.641690000000     0.282050000000    -0.3487     
O246     O      0.780510000000     0.678840000000     0.318170000000    -0.338892   
O247     O      0.786920000000     0.587250000000     0.230080000000    -0.511855   
O248     O      0.876240000000     0.653370000000     0.231790000000    -0.326765   
O249     O      0.679670000000     0.586960000000     0.229910000000    -0.336757   
O250     O      0.591340000000     0.655010000000     0.231870000000    -0.515133   
O251     O      0.733460000000     0.658590000000     0.200480000000    -0.608143   
O252     O      0.733440000000     0.658280000000     0.261700000000    -0.459051   
O253     O      0.804360000000     0.727390000000     0.198210000000    -0.473962   
O254     O      0.663480000000     0.727830000000     0.263520000000    -0.622587   
O255     O      0.803980000000     0.727290000000     0.263520000000    -0.623107   
O256     O      0.663110000000     0.727970000000     0.198220000000    -0.473802   
O257     O      0.070720000000     0.889560000000     0.931670000000    -0.363063   
O258     O      0.896650000000     0.065890000000     0.931850000000    -0.362935   
O259     O      0.933390000000     0.926990000000     0.894600000000    -0.363368   
O260     O      0.033570000000     0.028790000000     0.894610000000    -0.363264   
O261     O      0.070670000000     0.065910000000     0.931770000000    -0.363136   
O262     O      0.896300000000     0.889870000000     0.931770000000    -0.363067   
O263     O      0.933760000000     0.028830000000     0.894660000000    -0.363095   
O264     O      0.033540000000     0.926660000000     0.894530000000    -0.363302   
O265     O      0.983670000000     0.039790000000     0.950120000000    -0.50386    
O266     O      0.983700000000     0.915560000000     0.950040000000    -0.503792   
O267     O      0.921390000000     0.977700000000     0.950030000000    -0.649425   
O268     O      0.046010000000     0.977720000000     0.949950000000    -0.649154   
O269     O      0.895520000000     0.064540000000     0.530510000000    -0.363973   
O270     O      0.072020000000     0.890710000000     0.530340000000    -0.363543   
O271     O      0.846930000000     0.940390000000     0.481960000000    -0.368981   
O272     O      0.020960000000     0.114490000000     0.980870000000    -0.370276   
O273     O      0.120510000000     0.014980000000     0.981690000000    -0.370155   
O274     O      0.946490000000     0.840860000000     0.480590000000    -0.368743   
O275     O      0.933280000000     0.927130000000     0.567600000000    -0.363857   
O276     O      0.034870000000     0.027420000000     0.567600000000    -0.36356    
O277     O      0.896020000000     0.890180000000     0.530430000000    -0.363761   
O278     O      0.071940000000     0.064580000000     0.530440000000    -0.363743   
O279     O      0.846920000000     0.014920000000     0.981850000000    -0.37015    
O280     O      0.021040000000     0.840870000000     0.480680000000    -0.368998   
O281     O      0.120530000000     0.940450000000     0.481630000000    -0.368913   
O282     O      0.946410000000     0.114480000000     0.980920000000    -0.370287   
O283     O      0.932510000000     0.027260000000     0.567650000000    -0.363726   
O284     O      0.035030000000     0.927910000000     0.567530000000    -0.363393   
O285     O      0.045790000000     0.977650000000     0.512040000000    -0.505328   
O286     O      0.921640000000     0.977620000000     0.512130000000    -0.505502   
O287     O      0.983790000000     0.915360000000     0.512160000000    -0.651216   
O288     O      0.983730000000     0.039940000000     0.512270000000    -0.651085   
O289     O      0.020970000000     0.340860000000     0.481540000000    -0.369024   
O290     O      0.846930000000     0.514980000000     0.980380000000    -0.370356   
O291     O      0.896330000000     0.389960000000     0.530420000000    -0.364362   
O292     O      0.895870000000     0.390290000000     0.931750000000    -0.362723   
O293     O      0.932900000000     0.427440000000     0.894570000000    -0.363131   
O294     O      0.933480000000     0.427080000000     0.567570000000    -0.363553   
O295     O      0.846930000000     0.440450000000     0.980290000000    -0.370107   
O296     O      0.946430000000     0.340880000000     0.981600000000    -0.370316   
O297     O      0.921620000000     0.477650000000     0.950040000000    -0.50365    
O298     O      0.983760000000     0.415540000000     0.512080000000    -0.505393   
O299     O      0.921470000000     0.477740000000     0.512140000000    -0.650985   
O300     O      0.983690000000     0.415390000000     0.949960000000    -0.650142   
O301     O      0.946480000000     0.614490000000     0.981270000000    -0.370281   
O302     O      0.120530000000     0.440380000000     0.480110000000    -0.368794   
O303     O      0.934150000000     0.529080000000     0.567490000000    -0.363167   
O304     O      0.932520000000     0.527370000000     0.894510000000    -0.363072   
O305     O      0.034500000000     0.427510000000     0.894500000000    -0.363145   
O306     O      0.034050000000     0.426980000000     0.567500000000    -0.36337    
O307     O      0.071230000000     0.565500000000     0.530250000000    -0.364116   
O308     O      0.071500000000     0.565000000000     0.931580000000    -0.362819   
O309     O      0.034140000000     0.528420000000     0.567440000000    -0.363189   
O310     O      0.034430000000     0.527780000000     0.894450000000    -0.363318   
O311     O      0.896800000000     0.565960000000     0.530320000000    -0.364234   
O312     O      0.071200000000     0.389910000000     0.530330000000    -0.364177   
O313     O      0.071490000000     0.390250000000     0.931660000000    -0.362547   
O314     O      0.895540000000     0.564630000000     0.931660000000    -0.362799   
O315     O      0.021020000000     0.614480000000     0.481370000000    -0.368824   
O316     O      0.120530000000     0.514920000000     0.480060000000    -0.368825   
O317     O      0.045840000000     0.477630000000     0.949960000000    -0.503654   
O318     O      0.983780000000     0.539820000000     0.511990000000    -0.505343   
O319     O      0.046030000000     0.477690000000     0.512040000000    -0.651143   
O320     O      0.983700000000     0.539930000000     0.949870000000    -0.649954   
O321     O      0.346920000000     0.940450000000     0.481640000000    -0.368918   
O322     O      0.521030000000     0.114480000000     0.980920000000    -0.370334   
O323     O      0.395500000000     0.064580000000     0.530440000000    -0.363689   
O324     O      0.396780000000     0.065890000000     0.931750000000    -0.362926   
O325     O      0.433870000000     0.028750000000     0.894590000000    -0.362929   
O326     O      0.432550000000     0.027410000000     0.567600000000    -0.363525   
O327     O      0.446480000000     0.114500000000     0.980860000000    -0.370293   
O328     O      0.346930000000     0.014980000000     0.981690000000    -0.370137   
O329     O      0.483780000000     0.039790000000     0.950120000000    -0.503827   
O330     O      0.421650000000     0.977660000000     0.512040000000    -0.505491   
O331     O      0.483710000000     0.039950000000     0.512260000000    -0.651042   
O332     O      0.421440000000     0.977710000000     0.949950000000    -0.649384   
O333     O      0.620530000000     0.014920000000     0.981860000000    -0.370159   
O334     O      0.446420000000     0.840870000000     0.480700000000    -0.369056   
O335     O      0.534880000000     0.027320000000     0.567660000000    -0.363538   
O336     O      0.533680000000     0.028830000000     0.894670000000    -0.362885   
O337     O      0.433930000000     0.926620000000     0.894560000000    -0.363053   
O338     O      0.432440000000     0.927900000000     0.567540000000    -0.363298   
O339     O      0.571450000000     0.890210000000     0.530450000000    -0.363902   
O340     O      0.571160000000     0.889860000000     0.931790000000    -0.363145   
O341     O      0.534220000000     0.927210000000     0.567610000000    -0.363631   
O342     O      0.534070000000     0.926990000000     0.894620000000    -0.363005   
O343     O      0.571910000000     0.064570000000     0.530520000000    -0.363868   
O344     O      0.395440000000     0.890720000000     0.530360000000    -0.363832   
O345     O      0.396730000000     0.889540000000     0.931700000000    -0.363106   
O346     O      0.570800000000     0.065890000000     0.931860000000    -0.36298    
O347     O      0.620520000000     0.940390000000     0.481970000000    -0.368946   
O348     O      0.520970000000     0.840860000000     0.480610000000    -0.368778   
O349     O      0.483760000000     0.915560000000     0.950060000000    -0.503765   
O350     O      0.545810000000     0.977630000000     0.512140000000    -0.505536   
O351     O      0.483670000000     0.915370000000     0.512170000000    -0.651264   
O352     O      0.546060000000     0.977700000000     0.950050000000    -0.649461   
O353     O      0.346930000000     0.514920000000     0.480050000000    -0.368871   
O354     O      0.521030000000     0.340870000000     0.981590000000    -0.370359   
O355     O      0.395960000000     0.390240000000     0.931670000000    -0.362783   
O356     O      0.396250000000     0.389900000000     0.530330000000    -0.364338   
O357     O      0.433430000000     0.426950000000     0.567500000000    -0.363687   
O358     O      0.432960000000     0.427480000000     0.894510000000    -0.363523   
O359     O      0.446490000000     0.340860000000     0.981540000000    -0.370377   
O360     O      0.346930000000     0.440390000000     0.980110000000    -0.37018    
O361     O      0.483710000000     0.415540000000     0.512070000000    -0.505384   
O362     O      0.421610000000     0.477630000000     0.949960000000    -0.503616   
O363     O      0.483760000000     0.415390000000     0.949950000000    -0.649901   
O364     O      0.421420000000     0.477700000000     0.512030000000    -0.651185   
O365     O      0.620530000000     0.440440000000     0.980270000000    -0.370063   
O366     O      0.446440000000     0.614480000000     0.481370000000    -0.368984   
O367     O      0.534540000000     0.427450000000     0.894550000000    -0.363356   
O368     O      0.534000000000     0.427090000000     0.567560000000    -0.363951   
O369     O      0.433310000000     0.528390000000     0.567440000000    -0.363591   
O370     O      0.433010000000     0.527750000000     0.894430000000    -0.363596   
O371     O      0.571920000000     0.564610000000     0.931640000000    -0.362561   
O372     O      0.570650000000     0.565950000000     0.530320000000    -0.364244   
O373     O      0.534920000000     0.527360000000     0.894490000000    -0.363517   
O374     O      0.533300000000     0.529080000000     0.567480000000    -0.363714   
O375     O      0.571580000000     0.390280000000     0.931730000000    -0.362394   
O376     O      0.395960000000     0.564990000000     0.931570000000    -0.362662   
O377     O      0.396240000000     0.565500000000     0.530250000000    -0.364134   
O378     O      0.571130000000     0.389950000000     0.530410000000    -0.364349   
O379     O      0.620520000000     0.514970000000     0.480370000000    -0.369095   
O380     O      0.520980000000     0.614490000000     0.481260000000    -0.369017   
O381     O      0.483680000000     0.539820000000     0.511980000000    -0.505158   
O382     O      0.545840000000     0.477640000000     0.950030000000    -0.503538   
O383     O      0.483750000000     0.539930000000     0.949860000000    -0.649703   
O384     O      0.545990000000     0.477730000000     0.512130000000    -0.650968   
O385     O      0.148310000000     0.314110000000     0.782030000000    -0.350877   
O386     O      0.185400000000     0.274930000000     0.818170000000    -0.33923    
O387     O      0.150330000000     0.139240000000     0.680040000000    -0.348744   
O388     O      0.186000000000     0.179770000000     0.643920000000    -0.339016   
O389     O      0.147830000000     0.141760000000     0.782170000000    -0.34905    
O390     O      0.185010000000     0.180950000000     0.818260000000    -0.339106   
O391     O      0.150090000000     0.315710000000     0.679910000000    -0.351499   
O392     O      0.185890000000     0.275210000000     0.643840000000    -0.339517   
O393     O      0.093070000000     0.281740000000     0.730260000000    -0.336121   
O394     O      0.161200000000     0.370050000000     0.731610000000    -0.515464   
O395     O      0.093290000000     0.174530000000     0.730250000000    -0.51239    
O396     O      0.159380000000     0.085180000000     0.731930000000    -0.327843   
O397     O      0.164380000000     0.228010000000     0.761760000000    -0.459026   
O398     O      0.164650000000     0.227890000000     0.700550000000    -0.608156   
O399     O      0.317490000000     0.315550000000     0.679900000000    -0.34907    
O400     O      0.281700000000     0.275040000000     0.643840000000    -0.339238   
O401     O      0.319460000000     0.141620000000     0.782140000000    -0.350926   
O402     O      0.282290000000     0.180790000000     0.818240000000    -0.339443   
O403     O      0.316990000000     0.139090000000     0.680030000000    -0.3513     
O404     O      0.281300000000     0.179610000000     0.643920000000    -0.339331   
O405     O      0.319300000000     0.313960000000     0.782040000000    -0.349299   
O406     O      0.282200000000     0.274770000000     0.818180000000    -0.338902   
O407     O      0.374160000000     0.280630000000     0.730430000000    -0.51198    
O408     O      0.308110000000     0.370070000000     0.731540000000    -0.328175   
O409     O      0.374370000000     0.173440000000     0.730070000000    -0.335958   
O410     O      0.306210000000     0.085200000000     0.732000000000    -0.515366   
O411     O      0.302800000000     0.227250000000     0.700550000000    -0.608035   
O412     O      0.303070000000     0.227340000000     0.761760000000    -0.458975   
O413     O      0.234060000000     0.298200000000     0.698160000000    -0.474282   
O414     O      0.233410000000     0.157430000000     0.763580000000    -0.623023   
O415     O      0.234040000000     0.297890000000     0.763440000000    -0.622977   
O416     O      0.233390000000     0.157000000000     0.698280000000    -0.474021   
O417     O      0.147990000000     0.813740000000     0.782090000000    -0.351194   
O418     O      0.185150000000     0.774570000000     0.818200000000    -0.339395   
O419     O      0.149990000000     0.639800000000     0.679850000000    -0.348759   
O420     O      0.185780000000     0.680310000000     0.643790000000    -0.339274   
O421     O      0.148150000000     0.641350000000     0.781990000000    -0.349124   
O422     O      0.185240000000     0.680540000000     0.818130000000    -0.338961   
O423     O      0.150480000000     0.816240000000     0.679980000000    -0.351356   
O424     O      0.186180000000     0.775720000000     0.643880000000    -0.339446   
O425     O      0.093080000000     0.781880000000     0.730030000000    -0.336533   
O426     O      0.161230000000     0.870130000000     0.731950000000    -0.515327   
O427     O      0.093300000000     0.674700000000     0.730380000000    -0.511981   
O428     O      0.159350000000     0.585270000000     0.731490000000    -0.327473   
O429     O      0.164380000000     0.728000000000     0.761720000000    -0.459089   
O430     O      0.164650000000     0.728080000000     0.700510000000    -0.608159   
O431     O      0.317100000000     0.816090000000     0.679980000000    -0.348684   
O432     O      0.281420000000     0.775560000000     0.643880000000    -0.339138   
O433     O      0.319150000000     0.641210000000     0.781970000000    -0.351276   
O434     O      0.282070000000     0.680380000000     0.818120000000    -0.339294   
O435     O      0.317350000000     0.639650000000     0.679850000000    -0.351595   
O436     O      0.281540000000     0.680150000000     0.643790000000    -0.339497   
O437     O      0.319620000000     0.813600000000     0.782120000000    -0.348987   
O438     O      0.282450000000     0.774410000000     0.818220000000    -0.339042   
O439     O      0.374160000000     0.780810000000     0.730200000000    -0.512077   
O440     O      0.308070000000     0.870150000000     0.731890000000    -0.327491   
O441     O      0.374390000000     0.673600000000     0.730210000000    -0.336545   
O442     O      0.306260000000     0.585290000000     0.731560000000    -0.515183   
O443     O      0.302810000000     0.727450000000     0.700510000000    -0.608301   
O444     O      0.303070000000     0.727330000000     0.761720000000    -0.459132   
O445     O      0.234060000000     0.798350000000     0.698240000000    -0.473957   
O446     O      0.233420000000     0.657450000000     0.763400000000    -0.623019   
O447     O      0.234040000000     0.797900000000     0.763540000000    -0.622813   
O448     O      0.233390000000     0.657130000000     0.698120000000    -0.474305   
O449     O      0.819380000000     0.141690000000     0.782240000000    -0.354726   
O450     O      0.782250000000     0.180890000000     0.818340000000    -0.340171   
O451     O      0.817490000000     0.315620000000     0.679960000000    -0.348311   
O452     O      0.781730000000     0.275090000000     0.643890000000    -0.339028   
O453     O      0.819220000000     0.314030000000     0.782110000000    -0.350369   
O454     O      0.782160000000     0.274780000000     0.818230000000    -0.339437   
O455     O      0.816860000000     0.139020000000     0.680060000000    -0.343471   
O456     O      0.781290000000     0.179630000000     0.643940000000    -0.338629   
O457     O      0.874600000000     0.172320000000     0.729440000000    -0.340657   
O458     O      0.806140000000     0.085240000000     0.732170000000    -0.513032   
O459     O      0.874170000000     0.281050000000     0.730440000000    -0.513788   
O460     O      0.807870000000     0.370180000000     0.731600000000    -0.326368   
O461     O      0.803100000000     0.227410000000     0.761800000000    -0.468131   
O462     O      0.802810000000     0.227320000000     0.700620000000    -0.609792   
O463     O      0.650370000000     0.139210000000     0.680080000000    -0.348653   
O464     O      0.686010000000     0.179760000000     0.643960000000    -0.33891    
O465     O      0.648280000000     0.314080000000     0.782070000000    -0.350872   
O466     O      0.685410000000     0.274920000000     0.818200000000    -0.33918    
O467     O      0.650040000000     0.315700000000     0.679960000000    -0.35181    
O468     O      0.685870000000     0.275240000000     0.643890000000    -0.339528   
O469     O      0.647900000000     0.141740000000     0.782220000000    -0.348906   
O470     O      0.685060000000     0.180970000000     0.818290000000    -0.33906    
O471     O      0.593340000000     0.174440000000     0.730290000000    -0.511954   
O472     O      0.659490000000     0.085140000000     0.731970000000    -0.32702    
O473     O      0.593040000000     0.281640000000     0.730300000000    -0.335886   
O474     O      0.661090000000     0.370020000000     0.731660000000    -0.515331   
O475     O      0.664660000000     0.227860000000     0.700590000000    -0.608194   
O476     O      0.664380000000     0.227980000000     0.761800000000    -0.458879   
O477     O      0.733440000000     0.157000000000     0.698310000000    -0.473697   
O478     O      0.733990000000     0.297920000000     0.763490000000    -0.622661   
O479     O      0.733460000000     0.157440000000     0.763620000000    -0.62305    
O480     O      0.734020000000     0.298230000000     0.698200000000    -0.473998   
O481     O      0.820120000000     0.812920000000     0.782180000000    -0.354903   
O482     O      0.780870000000     0.775850000000     0.818290000000    -0.3401     
O483     O      0.645690000000     0.811390000000     0.680030000000    -0.348107   
O484     O      0.686200000000     0.775690000000     0.643920000000    -0.338924   
O485     O      0.647400000000     0.813070000000     0.782180000000    -0.350473   
O486     O      0.686680000000     0.775990000000     0.818270000000    -0.339622   
O487     O      0.821960000000     0.811120000000     0.679990000000    -0.343776   
O488     O      0.781380000000     0.775500000000     0.643890000000    -0.338774   
O489     O      0.789030000000     0.868480000000     0.729680000000    -0.340913   
O490     O      0.876170000000     0.800010000000     0.731900000000    -0.512955   
O491     O      0.680290000000     0.868040000000     0.730520000000    -0.513521   
O492     O      0.591170000000     0.801730000000     0.731720000000    -0.326217   
O493     O      0.734010000000     0.796950000000     0.761820000000    -0.468352   
O494     O      0.733990000000     0.796730000000     0.700640000000    -0.610005   
O495     O      0.822140000000     0.644370000000     0.679910000000    -0.348692   
O496     O      0.781530000000     0.680040000000     0.643850000000    -0.339205   
O497     O      0.647730000000     0.641760000000     0.782020000000    -0.351087   
O498     O      0.686820000000     0.678940000000     0.818160000000    -0.339213   
O499     O      0.645240000000     0.644410000000     0.679910000000    -0.351625   
O500     O      0.685790000000     0.680160000000     0.643850000000    -0.33947    
O501     O      0.819670000000     0.641690000000     0.782050000000    -0.348648   
O502     O      0.780510000000     0.678840000000     0.818170000000    -0.338936   
O503     O      0.786920000000     0.587250000000     0.730080000000    -0.511825   
O504     O      0.876240000000     0.653360000000     0.731790000000    -0.326493   
O505     O      0.679670000000     0.586960000000     0.729910000000    -0.336738   
O506     O      0.591340000000     0.655010000000     0.731870000000    -0.515244   
O507     O      0.733460000000     0.658590000000     0.700480000000    -0.608146   
O508     O      0.733440000000     0.658270000000     0.761700000000    -0.459037   
O509     O      0.804360000000     0.727390000000     0.698210000000    -0.473957   
O510     O      0.663480000000     0.727830000000     0.763520000000    -0.622579   
O511     O      0.803980000000     0.727290000000     0.763520000000    -0.623104   
O512     O      0.663110000000     0.727970000000     0.698220000000    -0.473817   
Zr1      Zr     0.983650000000     0.977720000000     0.419250000000     1.41465    
Zr2      Zr     0.921910000000     0.039470000000     0.481170000000     1.42702    
Zr3      Zr     0.045540000000     0.915880000000     0.981020000000     1.40998    
Zr4      Zr     0.921930000000     0.915850000000     0.981100000000     1.4097     
Zr5      Zr     0.045500000000     0.039490000000     0.481100000000     1.42723    
Zr6      Zr     0.983760000000     0.977600000000     0.042940000000     1.41696    
Zr7      Zr     0.921930000000     0.415890000000     0.481080000000     1.42714    
Zr8      Zr     0.921950000000     0.539490000000     0.481000000000     1.42722    
Zr9      Zr     0.045530000000     0.415860000000     0.981000000000     1.40987    
Zr10     Zr     0.983800000000     0.477730000000     0.042860000000     1.4159     
Zr11     Zr     0.983690000000     0.477620000000     0.419170000000     1.41664    
Zr12     Zr     0.045540000000     0.539480000000     0.980940000000     1.41005    
Zr13     Zr     0.421950000000     0.039490000000     0.481100000000     1.42702    
Zr14     Zr     0.545530000000     0.039470000000     0.481170000000     1.42718    
Zr15     Zr     0.421910000000     0.915890000000     0.981040000000     1.41001    
Zr16     Zr     0.483680000000     0.977610000000     0.042950000000     1.4172     
Zr17     Zr     0.483790000000     0.977710000000     0.419260000000     1.41512    
Zr18     Zr     0.545520000000     0.915860000000     0.981120000000     1.40997    
Zr19     Zr     0.421930000000     0.415860000000     0.481000000000     1.42713    
Zr20     Zr     0.545540000000     0.415880000000     0.481070000000     1.42693    
Zr21     Zr     0.421920000000     0.539480000000     0.980930000000     1.40985    
Zr22     Zr     0.483760000000     0.477610000000     0.419160000000     1.41611    
Zr23     Zr     0.483660000000     0.477720000000     0.042850000000     1.41547    
Zr24     Zr     0.545510000000     0.539490000000     0.980990000000     1.40978    
Zr25     Zr     0.171560000000     0.292350000000     0.230970000000     1.29334    
Zr26     Zr     0.170960000000     0.163490000000     0.231080000000     1.29809    
Zr27     Zr     0.296500000000     0.291760000000     0.230980000000     1.29808    
Zr28     Zr     0.295880000000     0.162890000000     0.231070000000     1.29345    
Zr29     Zr     0.233730000000     0.227710000000     0.288930000000     1.25824    
Zr30     Zr     0.233720000000     0.227550000000     0.173180000000     1.25521    
Zr31     Zr     0.171570000000     0.792440000000     0.231030000000     1.29323    
Zr32     Zr     0.170960000000     0.663580000000     0.230930000000     1.29834    
Zr33     Zr     0.296490000000     0.791850000000     0.231040000000     1.29817    
Zr34     Zr     0.295890000000     0.662990000000     0.230930000000     1.29315    
Zr35     Zr     0.233730000000     0.727630000000     0.288900000000     1.25795    
Zr36     Zr     0.233730000000     0.727780000000     0.173140000000     1.25553    
Zr37     Zr     0.795930000000     0.162930000000     0.231110000000     1.29472    
Zr38     Zr     0.796460000000     0.291840000000     0.231030000000     1.29523    
Zr39     Zr     0.671010000000     0.163460000000     0.231120000000     1.29818    
Zr40     Zr     0.671530000000     0.292330000000     0.231010000000     1.29324    
Zr41     Zr     0.733740000000     0.227730000000     0.288960000000     1.25839    
Zr42     Zr     0.733740000000     0.227580000000     0.173220000000     1.25483    
Zr43     Zr     0.798450000000     0.789810000000     0.231070000000     1.29433    
Zr44     Zr     0.669520000000     0.790340000000     0.231090000000     1.29562    
Zr45     Zr     0.797920000000     0.664910000000     0.230980000000     1.29831    
Zr46     Zr     0.669030000000     0.665430000000     0.230970000000     1.29307    
Zr47     Zr     0.733730000000     0.727570000000     0.288930000000     1.2583     
Zr48     Zr     0.733730000000     0.727710000000     0.173190000000     1.25509    
Zr49     Zr     0.983660000000     0.977720000000     0.919250000000     1.41404    
Zr50     Zr     0.921920000000     0.039470000000     0.981170000000     1.40991    
Zr51     Zr     0.045540000000     0.915880000000     0.481020000000     1.42718    
Zr52     Zr     0.921930000000     0.915860000000     0.481100000000     1.42697    
Zr53     Zr     0.045500000000     0.039490000000     0.981100000000     1.41007    
Zr54     Zr     0.983760000000     0.977600000000     0.542940000000     1.41617    
Zr55     Zr     0.921920000000     0.415890000000     0.981080000000     1.40984    
Zr56     Zr     0.921940000000     0.539490000000     0.981000000000     1.40998    
Zr57     Zr     0.045530000000     0.415850000000     0.481000000000     1.42713    
Zr58     Zr     0.983800000000     0.477730000000     0.542860000000     1.41508    
Zr59     Zr     0.983690000000     0.477620000000     0.919170000000     1.41607    
Zr60     Zr     0.045540000000     0.539470000000     0.480930000000     1.42724    
Zr61     Zr     0.421950000000     0.039490000000     0.981100000000     1.40979    
Zr62     Zr     0.545530000000     0.039470000000     0.981170000000     1.40998    
Zr63     Zr     0.421910000000     0.915880000000     0.481040000000     1.42721    
Zr64     Zr     0.483680000000     0.977610000000     0.542940000000     1.41643    
Zr65     Zr     0.483790000000     0.977710000000     0.919260000000     1.4146     
Zr66     Zr     0.545520000000     0.915860000000     0.481120000000     1.42716    
Zr67     Zr     0.421930000000     0.415860000000     0.981000000000     1.40995    
Zr68     Zr     0.545540000000     0.415880000000     0.981070000000     1.40965    
Zr69     Zr     0.421910000000     0.539480000000     0.480930000000     1.42712    
Zr70     Zr     0.483760000000     0.477610000000     0.919160000000     1.41559    
Zr71     Zr     0.483660000000     0.477720000000     0.542850000000     1.41458    
Zr72     Zr     0.545520000000     0.539490000000     0.480990000000     1.42708    
Zr73     Zr     0.171560000000     0.292350000000     0.730970000000     1.29354    
Zr74     Zr     0.170960000000     0.163490000000     0.731080000000     1.29827    
Zr75     Zr     0.296500000000     0.291760000000     0.730980000000     1.29818    
Zr76     Zr     0.295880000000     0.162890000000     0.731070000000     1.29359    
Zr77     Zr     0.233730000000     0.227710000000     0.788930000000     1.25837    
Zr78     Zr     0.233720000000     0.227550000000     0.673180000000     1.25505    
Zr79     Zr     0.171570000000     0.792440000000     0.731030000000     1.29337    
Zr80     Zr     0.170960000000     0.663580000000     0.730940000000     1.29846    
Zr81     Zr     0.296490000000     0.791850000000     0.731040000000     1.29833    
Zr82     Zr     0.295890000000     0.662990000000     0.730930000000     1.29323    
Zr83     Zr     0.233730000000     0.727620000000     0.788900000000     1.25808    
Zr84     Zr     0.233730000000     0.727780000000     0.673150000000     1.25521    
Zr85     Zr     0.795930000000     0.162930000000     0.731110000000     1.29489    
Zr86     Zr     0.796460000000     0.291840000000     0.731030000000     1.29544    
Zr87     Zr     0.671010000000     0.163460000000     0.731120000000     1.29838    
Zr88     Zr     0.671530000000     0.292330000000     0.731010000000     1.29339    
Zr89     Zr     0.733740000000     0.227730000000     0.788960000000     1.25855    
Zr90     Zr     0.733740000000     0.227580000000     0.673220000000     1.25461    
Zr91     Zr     0.798450000000     0.789810000000     0.731070000000     1.29455    
Zr92     Zr     0.669510000000     0.790340000000     0.731090000000     1.29577    
Zr93     Zr     0.797920000000     0.664910000000     0.730980000000     1.29841    
Zr94     Zr     0.669040000000     0.665430000000     0.730970000000     1.29312    
Zr95     Zr     0.733730000000     0.727560000000     0.788930000000     1.2583     
Zr96     Zr     0.733730000000     0.727710000000     0.673190000000     1.25502    


