data_structure

_audit_creation_method RASPA-1.0
_audit_creation_date 2023-5-22
_audit_author_name 'Poobodin Mano'

_cell_length_a    30.0102
_cell_length_b    29.9643
_cell_length_c    43.0143
_cell_angle_alpha 90
_cell_angle_beta  90
_cell_angle_gamma 89.9999
_cell_volume      38679.9

_symmetry_cell_setting          triclinic
_symmetry_space_group_name_Hall 'P 1'
_symmetry_space_group_name_H-M  'P 1'
_symmetry_Int_Tables_number     1

_symmetry_equiv_pos_as_xyz 'x,y,z'

loop_
_atom_site_label
_atom_site_type_symbol
_atom_site_fract_x
_atom_site_fract_y
_atom_site_fract_z
_atom_site_charge
C1       C      0.065800000000     0.899130000000     0.403190000000     0.389421   
C2       C      0.907920000000     0.064990000000     0.403910000000     0.390911   
C3       C      0.907810000000     0.899220000000     0.403190000000     0.389903   
C4       C      0.065920000000     0.064400000000     0.403710000000     0.390301   
C5       C      0.902070000000     0.057690000000     0.062020000000     0.392675   
C6       C      0.067820000000     0.900320000000     0.061730000000     0.389125   
C7       C      0.826620000000     0.981120000000     0.487540000000     0.39778    
C8       C      0.986130000000     0.142300000000     0.479730000000     0.396567   
C9       C      0.146570000000     0.982160000000     0.989050000000     0.39665    
C10      C      0.987030000000     0.821040000000     0.985630000000     0.393079   
C11      C      0.908440000000     0.898610000000     0.061720000000     0.391075   
C12      C      0.065720000000     0.064410000000     0.062250000000     0.389249   
C13      C      0.987020000000     0.321730000000     0.491690000000     0.397561   
C14      C      0.826200000000     0.481290000000     0.486660000000     0.396349   
C15      C      0.905490000000     0.406140000000     0.063780000000     0.389541   
C16      C      0.906440000000     0.394740000000     0.405700000000     0.390525   
C17      C      0.985810000000     0.641840000000     0.974350000000     0.393695   
C18      C      0.146440000000     0.482170000000     0.974980000000     0.3958     
C19      C      0.907550000000     0.565400000000     0.060690000000     0.388131   
C20      C      0.900630000000     0.556130000000     0.402120000000     0.389588   
C21      C      0.061210000000     0.393250000000     0.404000000000     0.38963    
C22      C      0.071970000000     0.405860000000     0.061890000000     0.387468   
C23      C      0.063470000000     0.570660000000     0.058670000000     0.392346   
C24      C      0.068130000000     0.557190000000     0.400610000000     0.389017   
C25      C      0.325710000000     0.981710000000     0.478380000000     0.396191   
C26      C      0.485940000000     0.141720000000     0.474540000000     0.397834   
C27      C      0.403340000000     0.060090000000     0.060000000000     0.390264   
C28      C      0.404410000000     0.061010000000     0.401520000000     0.392154   
C29      C      0.646520000000     0.981260000000     0.977110000000     0.392764   
C30      C      0.486070000000     0.821270000000     0.976640000000     0.397883   
C31      C      0.566230000000     0.065700000000     0.058770000000     0.387363   
C32      C      0.567980000000     0.058290000000     0.400370000000     0.392212   
C33      C      0.403180000000     0.900630000000     0.402610000000     0.391094   
C34      C      0.404010000000     0.904010000000     0.061030000000     0.390074   
C35      C      0.569580000000     0.903260000000     0.060350000000     0.388864   
C36      C      0.561100000000     0.894690000000     0.402230000000     0.393673   
C37      C      0.326350000000     0.481700000000     0.485410000000     0.394925   
C38      C      0.486450000000     0.320840000000     0.487350000000     0.397769   
C39      C      0.407740000000     0.398080000000     0.403450000000     0.389906   
C40      C      0.401880000000     0.405530000000     0.061590000000     0.390916   
C41      C      0.646580000000     0.480890000000     0.977000000000     0.39683    
C42      C      0.486820000000     0.641660000000     0.986610000000     0.396604   
C43      C      0.568770000000     0.402690000000     0.402990000000     0.391391   
C44      C      0.565920000000     0.397930000000     0.061350000000     0.391436   
C45      C      0.409640000000     0.565010000000     0.061860000000     0.390489   
C46      C      0.401180000000     0.557710000000     0.403590000000     0.393144   
C47      C      0.570790000000     0.558260000000     0.403200000000     0.39183    
C48      C      0.566850000000     0.564030000000     0.061230000000     0.390338   
C49      C      0.156530000000     0.305920000000     0.312980000000     0.377366   
C50      C      0.169370000000     0.143070000000     0.151620000000     0.377053   
C51      C      0.167470000000     0.145300000000     0.313460000000     0.375085   
C52      C      0.153480000000     0.303160000000     0.151540000000     0.37792    
C53      C      0.313200000000     0.310750000000     0.151680000000     0.378396   
C54      C      0.325700000000     0.164140000000     0.312900000000     0.379539   
C55      C      0.321670000000     0.159460000000     0.151130000000     0.377417   
C56      C      0.307420000000     0.316380000000     0.313130000000     0.37485    
C57      C      0.166520000000     0.817100000000     0.312410000000     0.375886   
C58      C      0.159960000000     0.655350000000     0.149870000000     0.378471   
C59      C      0.150110000000     0.660290000000     0.311360000000     0.374217   
C60      C      0.171250000000     0.819870000000     0.150710000000     0.379401   
C61      C      0.323790000000     0.802710000000     0.151540000000     0.376725   
C62      C      0.313770000000     0.652950000000     0.312740000000     0.379696   
C63      C      0.306590000000     0.644730000000     0.151070000000     0.378521   
C64      C      0.323500000000     0.798340000000     0.313320000000     0.377244   
C65      C      0.807490000000     0.148080000000     0.313880000000     0.377433   
C66      C      0.820480000000     0.307700000000     0.154000000000     0.376597   
C67      C      0.807990000000     0.310610000000     0.315290000000     0.375864   
C68      C      0.818430000000     0.155450000000     0.152650000000     0.379683   
C69      C      0.665530000000     0.149740000000     0.149320000000     0.376661   
C70      C      0.651200000000     0.304220000000     0.311930000000     0.37813    
C71      C      0.667220000000     0.316330000000     0.150650000000     0.380184   
C72      C      0.649020000000     0.158180000000     0.310600000000     0.379215   
C73      C      0.806240000000     0.819160000000     0.312740000000     0.376299   
C74      C      0.650500000000     0.801210000000     0.150400000000     0.37664    
C75      C      0.659400000000     0.811040000000     0.312050000000     0.380322   
C76      C      0.806460000000     0.819110000000     0.150910000000     0.378948   
C77      C      0.825990000000     0.666820000000     0.150760000000     0.376907   
C78      C      0.660370000000     0.652890000000     0.312260000000     0.375847   
C79      C      0.667570000000     0.646950000000     0.150950000000     0.378521   
C80      C      0.821230000000     0.660440000000     0.312510000000     0.374571   
C81      C      0.377860000000     0.400440000000     0.116640000000    -0.0106248  
C82      C      0.336220000000     0.358940000000     0.075220000000    -0.0117086  
C83      C      0.376850000000     0.359090000000     0.137230000000    -0.0139528  
C84      C      0.334170000000     0.317650000000     0.096070000000    -0.0127836  
C85      C      0.397090000000     0.379500000000     0.347700000000    -0.0109168  
C86      C      0.358380000000     0.334620000000     0.388930000000    -0.0119642  
C87      C      0.353990000000     0.381060000000     0.328910000000    -0.0148573  
C88      C      0.315700000000     0.334670000000     0.369340000000    -0.0135283  
C89      C      0.397050000000     0.582000000000     0.117720000000    -0.0118712  
C90      C      0.360570000000     0.628680000000     0.076490000000    -0.0121468  
C91      C      0.352890000000     0.579730000000     0.135330000000    -0.0131972  
C92      C      0.316760000000     0.627600000000     0.094820000000    -0.013487   
C93      C      0.377830000000     0.563510000000     0.348400000000    -0.0116337  
C94      C      0.336590000000     0.605770000000     0.389670000000    -0.0121713  
C95      C      0.377480000000     0.604810000000     0.327690000000    -0.0137794  
C96      C      0.334880000000     0.646850000000     0.368490000000    -0.0135881  
C97      C      0.617000000000     0.627100000000     0.075250000000    -0.0125198  
C98      C      0.578030000000     0.583090000000     0.116860000000    -0.012407   
C99      C      0.659660000000     0.627350000000     0.094910000000    -0.0132672  
C100     C      0.621110000000     0.581900000000     0.135690000000    -0.01202    
C101     C      0.636410000000     0.604880000000     0.389320000000    -0.0118662  
C102     C      0.594110000000     0.563920000000     0.348000000000    -0.0118946  
C103     C      0.640080000000     0.645740000000     0.368040000000    -0.0136487  
C104     C      0.596490000000     0.604950000000     0.327060000000    -0.013029   
C105     C      0.578110000000     0.379970000000     0.117020000000    -0.0123331  
C106     C      0.615490000000     0.334420000000     0.075490000000    -0.0125218  
C107     C      0.621950000000     0.381940000000     0.134910000000    -0.0122527  
C108     C      0.658820000000     0.334670000000     0.094420000000    -0.0133854  
C109     C      0.587740000000     0.353010000000     0.326930000000    -0.0137811  
C110     C      0.629060000000     0.309760000000     0.367560000000    -0.0135574  
C111     C      0.589560000000     0.394660000000     0.347380000000    -0.0118024  
C112     C      0.630330000000     0.351190000000     0.388390000000    -0.0121811  
C113     C      0.444400000000     0.750350000000     0.470030000000    -0.0117817  
C114     C      0.527980000000     0.750630000000     0.469340000000    -0.0115561  
C115     C      0.444950000000     0.712370000000     0.993610000000    -0.0281425  
C116     C      0.528570000000     0.712590000000     0.992890000000    -0.0283236  
C117     C      0.528250000000     0.249640000000     0.992340000000    -0.0281491  
C118     C      0.444670000000     0.249780000000     0.493370000000    -0.012076   
C119     C      0.527570000000     0.212750000000     0.967880000000    -0.00794507 
C120     C      0.444060000000     0.212810000000     0.468950000000    -0.0118853  
C121     C      0.385700000000     0.893800000000     0.116950000000    -0.0113174  
C122     C      0.341410000000     0.853920000000     0.075990000000    -0.0122826  
C123     C      0.387570000000     0.850860000000     0.136110000000    -0.0144631  
C124     C      0.342770000000     0.811150000000     0.095490000000    -0.0132892  
C125     C      0.341900000000     0.806200000000     0.369590000000    -0.0134541  
C126     C      0.389100000000     0.843370000000     0.329300000000    -0.0143082  
C127     C      0.340820000000     0.849680000000     0.388440000000    -0.0120454  
C128     C      0.386230000000     0.887420000000     0.346920000000    -0.0106931  
C129     C      0.340420000000     0.110010000000     0.074720000000    -0.0124433  
C130     C      0.383860000000     0.069340000000     0.115740000000    -0.0120815  
C131     C      0.340650000000     0.152140000000     0.094970000000    -0.0133456  
C132     C      0.385500000000     0.111820000000     0.135290000000    -0.0128665  
C133     C      0.391690000000     0.119170000000     0.328380000000    -0.0139049  
C134     C      0.344930000000     0.156170000000     0.368970000000    -0.0134538  
C135     C      0.388460000000     0.074830000000     0.345710000000    -0.0111951  
C136     C      0.342510000000     0.112240000000     0.387110000000    -0.0117405  
C137     C      0.657750000000     0.131900000000     0.092900000000    -0.013748   
C138     C      0.620600000000     0.084220000000     0.133050000000    -0.0151292  
C139     C      0.615390000000     0.129700000000     0.072800000000    -0.0128638  
C140     C      0.577470000000     0.084700000000     0.114350000000    -0.0110588  
C141     C      0.627010000000     0.151610000000     0.366130000000    -0.0130574  
C142     C      0.584720000000     0.110150000000     0.325120000000    -0.0143056  
C143     C      0.629880000000     0.109130000000     0.385660000000    -0.0114545  
C144     C      0.587280000000     0.067530000000     0.344560000000    -0.0110876  
C145     C      0.632840000000     0.810420000000     0.094100000000    -0.013739   
C146     C      0.585520000000     0.847410000000     0.134510000000    -0.0143722  
C147     C      0.632870000000     0.853680000000     0.074990000000    -0.0127864  
C148     C      0.586930000000     0.891110000000     0.116210000000    -0.0119314  
C149     C      0.652150000000     0.831920000000     0.367800000000    -0.0135538  
C150     C      0.609390000000     0.873510000000     0.326850000000    -0.0130142  
C151     C      0.610440000000     0.830970000000     0.388310000000    -0.0118298  
C152     C      0.567600000000     0.871430000000     0.347000000000    -0.0115994  
C153     C      0.755500000000     0.439340000000     0.993280000000    -0.0279549  
C154     C      0.755340000000     0.523130000000     0.492660000000    -0.0116628  
C155     C      0.717240000000     0.438980000000     0.969940000000    -0.00759189 
C156     C      0.717170000000     0.522640000000     0.469280000000    -0.0114989  
C157     C      0.255310000000     0.439800000000     0.990300000000    -0.0281571  
C158     C      0.255450000000     0.523640000000     0.491160000000    -0.0119957  
C159     C      0.217070000000     0.440500000000     0.966930000000    -0.007561   
C160     C      0.217150000000     0.524070000000     0.467810000000    -0.0116017  
C161     C      0.885550000000     0.398010000000     0.119610000000    -0.011177   
C162     C      0.841720000000     0.357790000000     0.078590000000    -0.0116045  
C163     C      0.884790000000     0.355940000000     0.139800000000    -0.0142516  
C164     C      0.841800000000     0.315560000000     0.098470000000    -0.0129024  
C165     C      0.897210000000     0.373080000000     0.350510000000    -0.0102578  
C166     C      0.857180000000     0.330530000000     0.392270000000    -0.0122519  
C167     C      0.854590000000     0.374770000000     0.331450000000    -0.0148913  
C168     C      0.815310000000     0.328690000000     0.371660000000    -0.0136243  
C169     C      0.844910000000     0.659440000000     0.094530000000    -0.013393   
C170     C      0.892550000000     0.622970000000     0.134830000000    -0.014988   
C171     C      0.845490000000     0.616440000000     0.075160000000    -0.0126505  
C172     C      0.891870000000     0.579330000000     0.116500000000    -0.0113239  
C173     C      0.882630000000     0.567740000000     0.346250000000    -0.0114146  
C174     C      0.836450000000     0.604600000000     0.387410000000    -0.012227   
C175     C      0.884440000000     0.611690000000     0.328200000000    -0.0151135  
C176     C      0.836920000000     0.648320000000     0.368810000000    -0.0138278  
C177     C      0.153360000000     0.635940000000     0.093760000000    -0.0138453  
C178     C      0.110090000000     0.593490000000     0.134090000000    -0.0148982  
C179     C      0.112510000000     0.634970000000     0.072230000000    -0.0125071  
C180     C      0.068870000000     0.595520000000     0.113530000000    -0.0108914  
C181     C      0.131940000000     0.649400000000     0.367370000000    -0.0141207  
C182     C      0.085050000000     0.613290000000     0.326300000000    -0.0155666  
C183     C      0.132120000000     0.605600000000     0.385760000000    -0.0121057  
C184     C      0.085220000000     0.569390000000     0.344600000000    -0.0114404  
C185     C      0.135840000000     0.356870000000     0.076280000000    -0.012462   
C186     C      0.090750000000     0.394750000000     0.117660000000    -0.0123272  
C187     C      0.135840000000     0.313610000000     0.095380000000    -0.0129836  
C188     C      0.089610000000     0.351240000000     0.136210000000    -0.0121043  
C189     C      0.108280000000     0.327710000000     0.390340000000    -0.0119566  
C190     C      0.065570000000     0.368240000000     0.349100000000    -0.0118902  
C191     C      0.149010000000     0.325450000000     0.368880000000    -0.0132369  
C192     C      0.106450000000     0.367930000000     0.328100000000    -0.0122836  
C193     C      0.717380000000     0.939320000000     0.471110000000    -0.0119045  
C194     C      0.717450000000     0.023100000000     0.971340000000    -0.00753465 
C195     C      0.755860000000     0.939210000000     0.494310000000    -0.0117867  
C196     C      0.755840000000     0.022860000000     0.994590000000    -0.0279571  
C197     C      0.217180000000     0.024020000000     0.996470000000    -0.0279966  
C198     C      0.217100000000     0.940430000000     0.497100000000    -0.0115956  
C199     C      0.254910000000     0.023720000000     0.972720000000    -0.00735467 
C200     C      0.254740000000     0.939850000000     0.473310000000    -0.0116443  
C201     C      0.027440000000     0.712460000000     0.966090000000    -0.00731759 
C202     C      0.943990000000     0.712750000000     0.467920000000    -0.0114041  
C203     C      0.028810000000     0.749850000000     0.990120000000    -0.0277186  
C204     C      0.945150000000     0.750180000000     0.491920000000    -0.0114893  
C205     C      0.028840000000     0.250780000000     0.498350000000    -0.01176    
C206     C      0.945470000000     0.250970000000     0.000050000000     0.0257127  
C207     C      0.027850000000     0.213460000000     0.474200000000    -0.0120187  
C208     C      0.944170000000     0.213570000000     0.975950000000    -0.0309408  
C209     C      0.858000000000     0.835960000000     0.076050000000    -0.0117603  
C210     C      0.896860000000     0.880490000000     0.117440000000    -0.0112441  
C211     C      0.814680000000     0.838090000000     0.094820000000    -0.0129448  
C212     C      0.853210000000     0.883820000000     0.135440000000    -0.0127829  
C213     C      0.852820000000     0.883910000000     0.328620000000    -0.0141154  
C214     C      0.814320000000     0.837720000000     0.368970000000    -0.0138336  
C215     C      0.896090000000     0.881880000000     0.347300000000    -0.0119805  
C216     C      0.857190000000     0.836840000000     0.388400000000    -0.0125988  
C217     C      0.838960000000     0.107460000000     0.076250000000    -0.0119834  
C218     C      0.879180000000     0.063890000000     0.117340000000    -0.0121121  
C219     C      0.839990000000     0.148910000000     0.097020000000    -0.0131016  
C220     C      0.880870000000     0.105380000000     0.137910000000    -0.0121285  
C221     C      0.858880000000     0.128920000000     0.389780000000    -0.0122499  
C222     C      0.897250000000     0.084290000000     0.348290000000    -0.0123571  
C223     C      0.816220000000     0.129920000000     0.370090000000    -0.0134596  
C224     C      0.854130000000     0.083430000000     0.329530000000    -0.0123856  
C225     C      0.159600000000     0.125800000000     0.095330000000    -0.0136217  
C226     C      0.123380000000     0.077900000000     0.135710000000    -0.0151236  
C227     C      0.115790000000     0.127240000000     0.077010000000    -0.0122389  
C228     C      0.079180000000     0.080400000000     0.118160000000    -0.0110823  
C229     C      0.077450000000     0.082270000000     0.347920000000    -0.0113918  
C230     C      0.115510000000     0.127690000000     0.389140000000    -0.0122145  
C231     C      0.120790000000     0.080740000000     0.329380000000    -0.0147436  
C232     C      0.158420000000     0.127750000000     0.369740000000    -0.0136247  
C233     C      0.082590000000     0.884990000000     0.117520000000    -0.0122187  
C234     C      0.117720000000     0.837250000000     0.076160000000    -0.0124082  
C235     C      0.127020000000     0.886270000000     0.134830000000    -0.0125219  
C236     C      0.161640000000     0.837360000000     0.094410000000    -0.0133312  
C237     C      0.115000000000     0.835660000000     0.388400000000    -0.0123347  
C238     C      0.076720000000     0.881120000000     0.347320000000    -0.0124075  
C239     C      0.157560000000     0.834950000000     0.368640000000    -0.0135732  
C240     C      0.119660000000     0.881650000000     0.328210000000    -0.0126493  
C241     C      0.065800000000     0.899130000000     0.903190000000     0.389122   
C242     C      0.907920000000     0.064990000000     0.903910000000     0.390548   
C243     C      0.907810000000     0.899220000000     0.903190000000     0.389534   
C244     C      0.065920000000     0.064400000000     0.903720000000     0.390084   
C245     C      0.902070000000     0.057690000000     0.562020000000     0.393548   
C246     C      0.067820000000     0.900320000000     0.561730000000     0.389952   
C247     C      0.826620000000     0.981120000000     0.987540000000     0.394922   
C248     C      0.986130000000     0.142300000000     0.979730000000     0.394144   
C249     C      0.146570000000     0.982160000000     0.489040000000     0.399486   
C250     C      0.987030000000     0.821040000000     0.485630000000     0.395924   
C251     C      0.908440000000     0.898610000000     0.561720000000     0.392041   
C252     C      0.065720000000     0.064410000000     0.562250000000     0.390114   
C253     C      0.987020000000     0.321730000000     0.991680000000     0.396381   
C254     C      0.826200000000     0.481290000000     0.986660000000     0.393481   
C255     C      0.905490000000     0.406140000000     0.563780000000     0.390446   
C256     C      0.906440000000     0.394740000000     0.905700000000     0.390222   
C257     C      0.985810000000     0.641840000000     0.474350000000     0.395601   
C258     C      0.146440000000     0.482170000000     0.474980000000     0.397678   
C259     C      0.907550000000     0.565400000000     0.560690000000     0.389051   
C260     C      0.900630000000     0.556130000000     0.902120000000     0.38932    
C261     C      0.061210000000     0.393250000000     0.904000000000     0.389521   
C262     C      0.071970000000     0.405860000000     0.561890000000     0.388351   
C263     C      0.063470000000     0.570660000000     0.558670000000     0.393261   
C264     C      0.068130000000     0.557190000000     0.900610000000     0.388706   
C265     C      0.325710000000     0.981710000000     0.978370000000     0.394277   
C266     C      0.485940000000     0.141720000000     0.974540000000     0.395923   
C267     C      0.403340000000     0.060090000000     0.560000000000     0.391081   
C268     C      0.404410000000     0.061010000000     0.901530000000     0.391903   
C269     C      0.646520000000     0.981260000000     0.477110000000     0.394634   
C270     C      0.486070000000     0.821270000000     0.476630000000     0.399786   
C271     C      0.566230000000     0.065700000000     0.558770000000     0.388269   
C272     C      0.567980000000     0.058290000000     0.900370000000     0.391835   
C273     C      0.403180000000     0.900630000000     0.902610000000     0.390894   
C274     C      0.404010000000     0.904010000000     0.561030000000     0.391004   
C275     C      0.569580000000     0.903260000000     0.560350000000     0.389777   
C276     C      0.561100000000     0.894690000000     0.902230000000     0.393186   
C277     C      0.326350000000     0.481700000000     0.985410000000     0.392071   
C278     C      0.486450000000     0.320840000000     0.987350000000     0.394934   
C279     C      0.407740000000     0.398080000000     0.903450000000     0.389633   
C280     C      0.401880000000     0.405530000000     0.561590000000     0.391813   
C281     C      0.646580000000     0.480890000000     0.477000000000     0.398724   
C282     C      0.486820000000     0.641660000000     0.486610000000     0.399477   
C283     C      0.568770000000     0.402690000000     0.902990000000     0.391099   
C284     C      0.565920000000     0.397930000000     0.561350000000     0.392322   
C285     C      0.409640000000     0.565010000000     0.561860000000     0.391367   
C286     C      0.401180000000     0.557710000000     0.903590000000     0.392659   
C287     C      0.570790000000     0.558260000000     0.903200000000     0.391532   
C288     C      0.566850000000     0.564030000000     0.561230000000     0.391236   
C289     C      0.156530000000     0.305920000000     0.812990000000     0.377363   
C290     C      0.169370000000     0.143070000000     0.651630000000     0.377139   
C291     C      0.167470000000     0.145300000000     0.813450000000     0.375219   
C292     C      0.153480000000     0.303160000000     0.651540000000     0.377936   
C293     C      0.313200000000     0.310750000000     0.651680000000     0.378413   
C294     C      0.325700000000     0.164140000000     0.812890000000     0.379407   
C295     C      0.321670000000     0.159460000000     0.651130000000     0.377437   
C296     C      0.307420000000     0.316380000000     0.813130000000     0.374918   
C297     C      0.166520000000     0.817100000000     0.812410000000     0.37596    
C298     C      0.159960000000     0.655350000000     0.649870000000     0.37849    
C299     C      0.150110000000     0.660290000000     0.811360000000     0.374287   
C300     C      0.171250000000     0.819870000000     0.650710000000     0.37942    
C301     C      0.323790000000     0.802710000000     0.651540000000     0.376747   
C302     C      0.313770000000     0.652950000000     0.812750000000     0.379697   
C303     C      0.306590000000     0.644730000000     0.651070000000     0.378543   
C304     C      0.323500000000     0.798340000000     0.813320000000     0.377392   
C305     C      0.807490000000     0.148080000000     0.813880000000     0.377497   
C306     C      0.820480000000     0.307700000000     0.654000000000     0.376612   
C307     C      0.807990000000     0.310610000000     0.815290000000     0.375926   
C308     C      0.818430000000     0.155450000000     0.652650000000     0.3797     
C309     C      0.665530000000     0.149740000000     0.649320000000     0.376652   
C310     C      0.651200000000     0.304220000000     0.811930000000     0.378199   
C311     C      0.667220000000     0.316330000000     0.650660000000     0.380272   
C312     C      0.649020000000     0.158180000000     0.810600000000     0.379386   
C313     C      0.806240000000     0.819160000000     0.812740000000     0.376372   
C314     C      0.650500000000     0.801210000000     0.650400000000     0.376659   
C315     C      0.659400000000     0.811040000000     0.812050000000     0.380393   
C316     C      0.806460000000     0.819110000000     0.650900000000     0.378905   
C317     C      0.825990000000     0.666820000000     0.650760000000     0.376928   
C318     C      0.660370000000     0.652890000000     0.812260000000     0.375917   
C319     C      0.667570000000     0.646950000000     0.650950000000     0.378538   
C320     C      0.821230000000     0.660440000000     0.812510000000     0.374642   
C321     C      0.377860000000     0.400440000000     0.616640000000    -0.0106229  
C322     C      0.336220000000     0.358940000000     0.575220000000    -0.0114825  
C323     C      0.376850000000     0.359090000000     0.637230000000    -0.0139376  
C324     C      0.334170000000     0.317650000000     0.596070000000    -0.012879   
C325     C      0.397090000000     0.379500000000     0.847700000000    -0.0108704  
C326     C      0.358380000000     0.334620000000     0.888930000000    -0.0118662  
C327     C      0.353990000000     0.381060000000     0.828910000000    -0.014864   
C328     C      0.315700000000     0.334670000000     0.869340000000    -0.013531   
C329     C      0.397050000000     0.582000000000     0.617720000000    -0.0118843  
C330     C      0.360570000000     0.628680000000     0.576490000000    -0.0119547  
C331     C      0.352890000000     0.579730000000     0.635330000000    -0.0131664  
C332     C      0.316760000000     0.627600000000     0.594820000000    -0.0135529  
C333     C      0.377830000000     0.563510000000     0.848400000000    -0.0116111  
C334     C      0.336590000000     0.605770000000     0.889670000000    -0.0120876  
C335     C      0.377480000000     0.604810000000     0.827690000000    -0.0137285  
C336     C      0.334880000000     0.646850000000     0.868490000000    -0.0135821  
C337     C      0.617000000000     0.627100000000     0.575260000000    -0.0122206  
C338     C      0.578030000000     0.583090000000     0.616860000000    -0.0124066  
C339     C      0.659660000000     0.627350000000     0.594910000000    -0.0133818  
C340     C      0.621110000000     0.581900000000     0.635690000000    -0.0119971  
C341     C      0.636410000000     0.604880000000     0.889320000000    -0.0117756  
C342     C      0.594110000000     0.563920000000     0.848000000000    -0.0118628  
C343     C      0.640080000000     0.645740000000     0.868040000000    -0.0136435  
C344     C      0.596490000000     0.604950000000     0.827060000000    -0.012994   
C345     C      0.578110000000     0.379970000000     0.617020000000    -0.0123605  
C346     C      0.615490000000     0.334420000000     0.575490000000    -0.0123115  
C347     C      0.621950000000     0.381940000000     0.634900000000    -0.0121751  
C348     C      0.658820000000     0.334670000000     0.594420000000    -0.0134619  
C349     C      0.587740000000     0.353010000000     0.826930000000    -0.0137444  
C350     C      0.629060000000     0.309760000000     0.867560000000    -0.0135325  
C351     C      0.589560000000     0.394660000000     0.847380000000    -0.0117722  
C352     C      0.630330000000     0.351190000000     0.888400000000    -0.0121523  
C353     C      0.444400000000     0.750350000000     0.970030000000    -0.00765984 
C354     C      0.527980000000     0.750630000000     0.969340000000    -0.00744345 
C355     C      0.444950000000     0.712370000000     0.493610000000    -0.0117731  
C356     C      0.528570000000     0.712590000000     0.492890000000    -0.0119446  
C357     C      0.528250000000     0.249640000000     0.492340000000    -0.0118308  
C358     C      0.444670000000     0.249780000000     0.993370000000    -0.0284151  
C359     C      0.527570000000     0.212750000000     0.467880000000    -0.0120268  
C360     C      0.444060000000     0.212810000000     0.968950000000    -0.00780187 
C361     C      0.385700000000     0.893800000000     0.616950000000    -0.0113142  
C362     C      0.341410000000     0.853920000000     0.575990000000    -0.0120535  
C363     C      0.387570000000     0.850860000000     0.636110000000    -0.0144407  
C364     C      0.342770000000     0.811150000000     0.595490000000    -0.0133728  
C365     C      0.341900000000     0.806200000000     0.869590000000    -0.0135156  
C366     C      0.389100000000     0.843370000000     0.829290000000    -0.0142801  
C367     C      0.340820000000     0.849680000000     0.888440000000    -0.0118961  
C368     C      0.386230000000     0.887420000000     0.846920000000    -0.0107011  
C369     C      0.340420000000     0.110010000000     0.574720000000    -0.0122495  
C370     C      0.383860000000     0.069340000000     0.615740000000    -0.0120287  
C371     C      0.340650000000     0.152140000000     0.594970000000    -0.0134211  
C372     C      0.385500000000     0.111820000000     0.635290000000    -0.0128602  
C373     C      0.391690000000     0.119170000000     0.828380000000    -0.0139391  
C374     C      0.344930000000     0.156170000000     0.868970000000    -0.01337    
C375     C      0.388460000000     0.074830000000     0.845710000000    -0.0111452  
C376     C      0.342510000000     0.112240000000     0.887110000000    -0.011735   
C377     C      0.657750000000     0.131900000000     0.592900000000    -0.0138468  
C378     C      0.620600000000     0.084220000000     0.633050000000    -0.0151085  
C379     C      0.615390000000     0.129700000000     0.572800000000    -0.0126303  
C380     C      0.577470000000     0.084700000000     0.614350000000    -0.0110641  
C381     C      0.627010000000     0.151610000000     0.866130000000    -0.0130872  
C382     C      0.584720000000     0.110150000000     0.825120000000    -0.0142341  
C383     C      0.629880000000     0.109130000000     0.885660000000    -0.0113973  
C384     C      0.587280000000     0.067530000000     0.844560000000    -0.0110412  
C385     C      0.632840000000     0.810420000000     0.594100000000    -0.0138211  
C386     C      0.585520000000     0.847410000000     0.634510000000    -0.0143455  
C387     C      0.632870000000     0.853680000000     0.574990000000    -0.0125642  
C388     C      0.586930000000     0.891110000000     0.616210000000    -0.0119374  
C389     C      0.652150000000     0.831920000000     0.867800000000    -0.0135473  
C390     C      0.609390000000     0.873510000000     0.826850000000    -0.012978   
C391     C      0.610440000000     0.830970000000     0.888310000000    -0.0117534  
C392     C      0.567600000000     0.871430000000     0.847000000000    -0.0115738  
C393     C      0.755500000000     0.439340000000     0.493280000000    -0.0115921  
C394     C      0.755340000000     0.523130000000     0.992660000000    -0.0280079  
C395     C      0.717240000000     0.438980000000     0.469940000000    -0.0117089  
C396     C      0.717170000000     0.522640000000     0.969280000000    -0.00742164 
C397     C      0.255310000000     0.439800000000     0.490300000000    -0.011822   
C398     C      0.255450000000     0.523640000000     0.991160000000    -0.0283421  
C399     C      0.217070000000     0.440500000000     0.466930000000    -0.0116563  
C400     C      0.217150000000     0.524070000000     0.967810000000    -0.0074963  
C401     C      0.885550000000     0.398010000000     0.619610000000    -0.0111802  
C402     C      0.841720000000     0.357790000000     0.578590000000    -0.0113748  
C403     C      0.884790000000     0.355940000000     0.639800000000    -0.0142377  
C404     C      0.841800000000     0.315560000000     0.598470000000    -0.0130053  
C405     C      0.897210000000     0.373080000000     0.850510000000    -0.0102215  
C406     C      0.857180000000     0.330530000000     0.892270000000    -0.0121109  
C407     C      0.854590000000     0.374770000000     0.831450000000    -0.0148626  
C408     C      0.815310000000     0.328690000000     0.871670000000    -0.0137255  
C409     C      0.844910000000     0.659440000000     0.594530000000    -0.0134904  
C410     C      0.892550000000     0.622970000000     0.634830000000    -0.0149662  
C411     C      0.845490000000     0.616440000000     0.575160000000    -0.0124085  
C412     C      0.891870000000     0.579330000000     0.616500000000    -0.0113241  
C413     C      0.882630000000     0.567740000000     0.846240000000    -0.0114879  
C414     C      0.836450000000     0.604600000000     0.887410000000    -0.0121451  
C415     C      0.884440000000     0.611690000000     0.828200000000    -0.0150332  
C416     C      0.836920000000     0.648320000000     0.868810000000    -0.0138162  
C417     C      0.153360000000     0.635940000000     0.593760000000    -0.0139443  
C418     C      0.110090000000     0.593490000000     0.634090000000    -0.0148806  
C419     C      0.112510000000     0.634970000000     0.572230000000    -0.012263   
C420     C      0.068870000000     0.595520000000     0.613530000000    -0.0108812  
C421     C      0.131940000000     0.649400000000     0.867370000000    -0.0141357  
C422     C      0.085050000000     0.613290000000     0.826300000000    -0.015533   
C423     C      0.132120000000     0.605600000000     0.885750000000    -0.0119635  
C424     C      0.085220000000     0.569390000000     0.844600000000    -0.01141    
C425     C      0.135840000000     0.356870000000     0.576280000000    -0.0122365  
C426     C      0.090750000000     0.394750000000     0.617660000000    -0.0123481  
C427     C      0.135840000000     0.313610000000     0.595380000000    -0.013069   
C428     C      0.089610000000     0.351240000000     0.636210000000    -0.012077   
C429     C      0.108280000000     0.327710000000     0.890340000000    -0.0118434  
C430     C      0.065570000000     0.368240000000     0.849100000000    -0.0118307  
C431     C      0.149010000000     0.325450000000     0.868880000000    -0.0132589  
C432     C      0.106450000000     0.367930000000     0.828090000000    -0.0123057  
C433     C      0.717380000000     0.939320000000     0.971110000000    -0.00781399 
C434     C      0.717450000000     0.023100000000     0.471340000000    -0.011632   
C435     C      0.755860000000     0.939210000000     0.994310000000    -0.0281492  
C436     C      0.755840000000     0.022860000000     0.494590000000    -0.0116164  
C437     C      0.217180000000     0.024020000000     0.496470000000    -0.0116319  
C438     C      0.217100000000     0.940430000000     0.997110000000    -0.0280017  
C439     C      0.254910000000     0.023720000000     0.472720000000    -0.0114566  
C440     C      0.254740000000     0.939850000000     0.973310000000    -0.00751781 
C441     C      0.027440000000     0.712460000000     0.466090000000    -0.0114274  
C442     C      0.943990000000     0.712750000000     0.967920000000    -0.00730091 
C443     C      0.028810000000     0.749850000000     0.490120000000    -0.0113623  
C444     C      0.945150000000     0.750180000000     0.991920000000    -0.0277852  
C445     C      0.028840000000     0.250780000000     0.998350000000    -0.0264866  
C446     C      0.945470000000     0.250970000000     0.500050000000    -0.0118364  
C447     C      0.027850000000     0.213460000000     0.974200000000    -0.00982943 
C448     C      0.944170000000     0.213570000000     0.475950000000    -0.0121729  
C449     C      0.858000000000     0.835960000000     0.576050000000    -0.0115189  
C450     C      0.896860000000     0.880490000000     0.617440000000    -0.0113114  
C451     C      0.814680000000     0.838090000000     0.594820000000    -0.0130346  
C452     C      0.853210000000     0.883820000000     0.635440000000    -0.0127201  
C453     C      0.852820000000     0.883910000000     0.828620000000    -0.014115   
C454     C      0.814320000000     0.837720000000     0.868960000000    -0.0137282  
C455     C      0.896090000000     0.881880000000     0.847300000000    -0.0119414  
C456     C      0.857190000000     0.836840000000     0.888400000000    -0.0125527  
C457     C      0.838960000000     0.107460000000     0.576250000000    -0.0117389  
C458     C      0.879180000000     0.063890000000     0.617340000000    -0.0121112  
C459     C      0.839990000000     0.148910000000     0.597020000000    -0.0131782  
C460     C      0.880870000000     0.105380000000     0.637910000000    -0.0121066  
C461     C      0.858880000000     0.128920000000     0.889780000000    -0.0121487  
C462     C      0.897250000000     0.084290000000     0.848290000000    -0.0122494  
C463     C      0.816220000000     0.129920000000     0.870090000000    -0.0134633  
C464     C      0.854130000000     0.083430000000     0.829520000000    -0.0124331  
C465     C      0.159600000000     0.125800000000     0.595330000000    -0.0137039  
C466     C      0.123380000000     0.077900000000     0.635710000000    -0.0151114  
C467     C      0.115790000000     0.127240000000     0.577010000000    -0.0120455  
C468     C      0.079180000000     0.080400000000     0.618160000000    -0.0110992  
C469     C      0.077450000000     0.082270000000     0.847920000000    -0.0113525  
C470     C      0.115510000000     0.127690000000     0.889140000000    -0.0120928  
C471     C      0.120790000000     0.080740000000     0.829380000000    -0.0147288  
C472     C      0.158420000000     0.127750000000     0.869750000000    -0.0137217  
C473     C      0.082590000000     0.884990000000     0.617520000000    -0.0122474  
C474     C      0.117720000000     0.837250000000     0.576160000000    -0.0122195  
C475     C      0.127020000000     0.886270000000     0.634830000000    -0.0124908  
C476     C      0.161640000000     0.837360000000     0.594410000000    -0.0134269  
C477     C      0.115000000000     0.835660000000     0.888400000000    -0.0122445  
C478     C      0.076720000000     0.881120000000     0.847320000000    -0.0124005  
C479     C      0.157560000000     0.834950000000     0.868640000000    -0.0135669  
C480     C      0.119660000000     0.881650000000     0.828220000000    -0.0125492  
H1       H      0.895990000000     0.981530000000     0.438080000000     0.206548   
H2       H      0.077620000000     0.982060000000     0.438280000000     0.205573   
H3       H      0.987320000000     0.892000000000     0.027090000000     0.213954   
H4       H      0.985900000000     0.072420000000     0.027560000000     0.209438   
H5       H      0.898200000000     0.483550000000     0.027550000000     0.21365    
H6       H      0.985510000000     0.389230000000     0.440260000000     0.210159   
H7       H      0.078450000000     0.484460000000     0.025640000000     0.208041   
H8       H      0.985070000000     0.569290000000     0.435180000000     0.209855   
H9       H      0.486220000000     0.072750000000     0.024500000000     0.208078   
H10      H      0.395970000000     0.980990000000     0.436620000000     0.213342   
H11      H      0.486400000000     0.891130000000     0.026090000000     0.207393   
H12      H      0.575290000000     0.979910000000     0.435610000000     0.211233   
H13      H      0.486690000000     0.390450000000     0.438140000000     0.208893   
H14      H      0.397750000000     0.482440000000     0.027110000000     0.21356    
H15      H      0.486500000000     0.572370000000     0.437450000000     0.205445   
H16      H      0.578110000000     0.481140000000     0.026800000000     0.207949   
H17      H      0.141030000000     0.222370000000     0.187960000000     0.208101   
H18      H      0.246100000000     0.132880000000     0.279000000000     0.201487   
H19      H      0.333990000000     0.237530000000     0.188440000000     0.209378   
H20      H      0.230040000000     0.328580000000     0.278080000000     0.204978   
H21      H      0.203780000000     0.067770000000     0.236100000000     0.123414   
H22      H      0.296440000000     0.069770000000     0.238400000000     0.182328   
H23      H      0.392910000000     0.204220000000     0.245690000000     0.146036   
H24      H      0.393360000000     0.296600000000     0.214850000000     0.196234   
H25      H      0.268800000000     0.392360000000     0.235080000000     0.12305    
H26      H      0.172810000000     0.391650000000     0.232680000000     0.18456    
H27      H      0.074070000000     0.300870000000     0.228380000000     0.137542   
H28      H      0.082720000000     0.159660000000     0.212490000000     0.198233   
H29      H      0.391750000000     0.299090000000     0.253670000000     0.201016   
H30      H      0.118630000000     0.378600000000     0.231000000000     0.193531   
H31      H      0.082640000000     0.170240000000     0.250680000000     0.209785   
H32      H      0.350120000000     0.078920000000     0.229930000000     0.202025   
H33      H      0.142020000000     0.740610000000     0.186300000000     0.207842   
H34      H      0.228250000000     0.633500000000     0.278100000000     0.200628   
H35      H      0.334560000000     0.722550000000     0.188090000000     0.207929   
H36      H      0.246270000000     0.828850000000     0.278450000000     0.202213   
H37      H      0.176290000000     0.577010000000     0.234050000000     0.123975   
H38      H      0.268250000000     0.563090000000     0.237270000000     0.183098   
H39      H      0.386420000000     0.679470000000     0.244320000000     0.14455    
H40      H      0.402190000000     0.774600000000     0.212200000000     0.197251   
H41      H      0.294930000000     0.885620000000     0.235310000000     0.123019   
H42      H      0.201480000000     0.901400000000     0.234210000000     0.184536   
H43      H      0.089010000000     0.829430000000     0.224610000000     0.137145   
H44      H      0.073830000000     0.686240000000     0.208250000000     0.19912    
H45      H      0.401730000000     0.769820000000     0.250920000000     0.200797   
H46      H      0.145930000000     0.898030000000     0.231570000000     0.193817   
H47      H      0.074050000000     0.700700000000     0.245830000000     0.209646   
H48      H      0.323780000000     0.563330000000     0.233470000000     0.202303   
H49      H      0.834430000000     0.230470000000     0.190610000000     0.211012   
H50      H      0.733910000000     0.328600000000     0.279310000000     0.203265   
H51      H      0.641130000000     0.233220000000     0.185370000000     0.207849   
H52      H      0.731410000000     0.132390000000     0.277930000000     0.202748   
H53      H      0.783400000000     0.389750000000     0.237450000000     0.124883   
H54      H      0.688230000000     0.397030000000     0.237820000000     0.183699   
H55      H      0.582630000000     0.273590000000     0.244190000000     0.145797   
H56      H      0.577540000000     0.173880000000     0.204860000000     0.197874   
H57      H      0.688770000000     0.072720000000     0.232570000000     0.124315   
H58      H      0.782900000000     0.064770000000     0.234020000000     0.184851   
H59      H      0.891350000000     0.142800000000     0.234800000000     0.138069   
H60      H      0.898110000000     0.285510000000     0.219050000000     0.199535   
H61      H      0.573680000000     0.183270000000     0.243100000000     0.201279   
H62      H      0.837900000000     0.071500000000     0.229520000000     0.193313   
H63      H      0.893690000000     0.278770000000     0.257530000000     0.209294   
H64      H      0.633310000000     0.390630000000     0.232620000000     0.199629   
H65      H      0.729010000000     0.829460000000     0.187350000000     0.206135   
H66      H      0.639460000000     0.726480000000     0.277840000000     0.203817   
H67      H      0.745990000000     0.636490000000     0.187390000000     0.208471   
H68      H      0.834910000000     0.741320000000     0.278300000000     0.202312   
H69      H      0.576360000000     0.760310000000     0.230920000000     0.124992   
H70      H      0.576620000000     0.667540000000     0.231810000000     0.184546   
H71      H      0.667800000000     0.569060000000     0.228310000000     0.136627   
H72      H      0.810360000000     0.578810000000     0.210480000000     0.199109   
H73      H      0.899840000000     0.700510000000     0.235140000000     0.124192   
H74      H      0.897740000000     0.793440000000     0.235840000000     0.183278   
H75      H      0.764280000000     0.888270000000     0.248380000000     0.145749   
H76      H      0.686620000000     0.887940000000     0.217930000000     0.192182   
H77      H      0.797470000000     0.577670000000     0.248310000000     0.210213   
H78      H      0.887560000000     0.847510000000     0.229090000000     0.200255   
H79      H      0.637860000000     0.887430000000     0.236740000000     0.202861   
H80      H      0.589940000000     0.613440000000     0.229010000000     0.192679   
H81      H      0.305000000000     0.378360000000     0.078590000000     0.0389452  
H82      H      0.348800000000     0.421770000000     0.122700000000     0.0393441  
H83      H      0.376580000000     0.370080000000     0.161890000000     0.0435347  
H84      H      0.337090000000     0.347790000000     0.050600000000     0.0433482  
H85      H      0.302560000000     0.299610000000     0.091210000000     0.0445862  
H86      H      0.362220000000     0.295170000000     0.089730000000     0.0398087  
H87      H      0.408590000000     0.419670000000     0.121950000000     0.04035    
H88      H      0.408200000000     0.340060000000     0.133390000000     0.0374859  
H89      H      0.376920000000     0.303310000000     0.383860000000     0.0374294  
H90      H      0.417370000000     0.350860000000     0.339310000000     0.0363453  
H91      H      0.362650000000     0.383650000000     0.303860000000     0.0430407  
H92      H      0.348970000000     0.333890000000     0.413900000000     0.0399575  
H93      H      0.297450000000     0.302980000000     0.373560000000     0.0438785  
H94      H      0.294160000000     0.362470000000     0.377570000000     0.0381452  
H95      H      0.416200000000     0.410540000000     0.343010000000     0.039867   
H96      H      0.335540000000     0.411870000000     0.335430000000     0.0388842  
H97      H      0.378720000000     0.659700000000     0.082910000000     0.039605   
H98      H      0.416850000000     0.610270000000     0.127210000000     0.0403141  
H99      H      0.360120000000     0.576080000000     0.160530000000     0.0434267  
H100     H      0.352700000000     0.630780000000     0.051290000000     0.0433085  
H101     H      0.298470000000     0.659280000000     0.090650000000     0.0447761  
H102     H      0.295990000000     0.599930000000     0.085500000000     0.0395878  
H103     H      0.415900000000     0.550750000000     0.122240000000     0.0404733  
H104     H      0.334830000000     0.549230000000     0.127690000000     0.0390826  
H105     H      0.305080000000     0.586740000000     0.386570000000     0.0379446  
H106     H      0.348570000000     0.542510000000     0.342250000000     0.037803   
H107     H      0.377400000000     0.593720000000     0.303040000000     0.0410846  
H108     H      0.337830000000     0.617260000000     0.414210000000     0.0398867  
H109     H      0.303460000000     0.665260000000     0.373220000000     0.0433965  
H110     H      0.363090000000     0.669180000000     0.374750000000     0.0385515  
H111     H      0.408340000000     0.543890000000     0.343190000000     0.0394898  
H112     H      0.408930000000     0.623590000000     0.331710000000     0.0376081  
H113     H      0.557700000000     0.611840000000     0.125000000000     0.0404378  
H114     H      0.598580000000     0.658600000000     0.079930000000     0.0410838  
H115     H      0.677960000000     0.658930000000     0.090420000000     0.044459   
H116     H      0.558950000000     0.552100000000     0.121770000000     0.0392545  
H117     H      0.612450000000     0.579680000000     0.160750000000     0.0363376  
H118     H      0.639550000000     0.550970000000     0.129440000000     0.0354569  
H119     H      0.626530000000     0.627240000000     0.050300000000     0.0429498  
H120     H      0.681150000000     0.599320000000     0.087010000000     0.0375406  
H121     H      0.622480000000     0.541570000000     0.342140000000     0.0395832  
H122     H      0.667200000000     0.584620000000     0.386540000000     0.0397159  
H123     H      0.672310000000     0.662680000000     0.372830000000     0.0433867  
H124     H      0.562800000000     0.545620000000     0.342710000000     0.0390399  
H125     H      0.596870000000     0.593450000000     0.302500000000     0.0388617  
H126     H      0.565570000000     0.624820000000     0.330480000000     0.035246   
H127     H      0.635290000000     0.616620000000     0.413810000000     0.0403153  
H128     H      0.612890000000     0.669390000000     0.374180000000     0.03708    
H129     H      0.597130000000     0.303180000000     0.081040000000     0.0395     
H130     H      0.558250000000     0.351430000000     0.126040000000     0.0406542  
H131     H      0.614420000000     0.385530000000     0.160070000000     0.0415158  
H132     H      0.624080000000     0.333320000000     0.050380000000     0.0429885  
H133     H      0.676880000000     0.302860000000     0.090220000000     0.0440727  
H134     H      0.680130000000     0.362330000000     0.085690000000     0.0391748  
H135     H      0.559140000000     0.411070000000     0.121770000000     0.0394234  
H136     H      0.640240000000     0.412430000000     0.127480000000     0.0374034  
H137     H      0.599490000000     0.289510000000     0.374180000000     0.0381362  
H138     H      0.555720000000     0.335540000000     0.331540000000     0.0373029  
H139     H      0.559560000000     0.415250000000     0.342540000000     0.0396579  
H140     H      0.659200000000     0.289320000000     0.372280000000     0.0439529  
H141     H      0.629340000000     0.340190000000     0.413050000000     0.0401549  
H142     H      0.662670000000     0.368470000000     0.384580000000     0.0387766  
H143     H      0.587630000000     0.363590000000     0.302170000000     0.0393922  
H144     H      0.619260000000     0.414570000000     0.340520000000     0.0377255  
H145     H      0.529510000000     0.735940000000     0.445610000000     0.0378294  
H146     H      0.442160000000     0.735630000000     0.446340000000     0.0381099  
H147     H      0.414590000000     0.691700000000     0.990340000000     0.0412379  
H148     H      0.558350000000     0.771310000000     0.472600000000     0.0405576  
H149     H      0.558890000000     0.692080000000     0.989000000000     0.0412803  
H150     H      0.530940000000     0.727270000000     0.016580000000     0.0503598  
H151     H      0.414040000000     0.770840000000     0.473840000000     0.0402271  
H152     H      0.443400000000     0.727100000000     0.017320000000     0.0499585  
H153     H      0.443250000000     0.234000000000     0.516750000000     0.0381817  
H154     H      0.530760000000     0.233780000000     0.015660000000     0.0497906  
H155     H      0.558010000000     0.192000000000     0.970500000000     0.0373965  
H156     H      0.414290000000     0.270590000000     0.490600000000     0.04041    
H157     H      0.413740000000     0.192110000000     0.472340000000     0.0402915  
H158     H      0.441640000000     0.228620000000     0.445610000000     0.037827   
H159     H      0.558570000000     0.270340000000     0.988920000000     0.0411846  
H160     H      0.528780000000     0.228600000000     0.944510000000     0.0374484  
H161     H      0.309860000000     0.871790000000     0.081370000000     0.0415075  
H162     H      0.356930000000     0.913980000000     0.125200000000     0.0417441  
H163     H      0.389430000000     0.859890000000     0.161120000000     0.0446539  
H164     H      0.340440000000     0.844510000000     0.051020000000     0.0425974  
H165     H      0.311780000000     0.791860000000     0.091100000000     0.0448438  
H166     H      0.371340000000     0.790580000000     0.087390000000     0.0377843  
H167     H      0.416500000000     0.913310000000     0.121480000000     0.040933   
H168     H      0.418850000000     0.832920000000     0.130080000000     0.036355   
H169     H      0.419570000000     0.825470000000     0.337140000000     0.0391419  
H170     H      0.369810000000     0.785370000000     0.378470000000     0.0389024  
H171     H      0.339800000000     0.841150000000     0.413570000000     0.0405084  
H172     H      0.393080000000     0.850610000000     0.304120000000     0.0440077  
H173     H      0.417050000000     0.906820000000     0.342230000000     0.0411565  
H174     H      0.357580000000     0.906790000000     0.337600000000     0.0374463  
H175     H      0.310440000000     0.787570000000     0.373730000000     0.0433929  
H176     H      0.309360000000     0.867510000000     0.382780000000     0.0362612  
H177     H      0.354840000000     0.049110000000     0.123490000000     0.0409887  
H178     H      0.308830000000     0.091700000000     0.079200000000     0.0413844  
H179     H      0.309310000000     0.170930000000     0.090730000000     0.0451125  
H180     H      0.414480000000     0.049620000000     0.120450000000     0.0409109  
H181     H      0.387310000000     0.102230000000     0.160210000000     0.0428384  
H182     H      0.416690000000     0.130060000000     0.129490000000     0.0383625  
H183     H      0.340340000000     0.120260000000     0.049900000000     0.0425862  
H184     H      0.368830000000     0.173610000000     0.087340000000     0.0380681  
H185     H      0.373450000000     0.175870000000     0.378160000000     0.0394054  
H186     H      0.422320000000     0.136660000000     0.336360000000     0.0395811  
H187     H      0.419340000000     0.055430000000     0.341210000000     0.040432   
H188     H      0.314020000000     0.175600000000     0.373320000000     0.0434792  
H189     H      0.340670000000     0.120040000000     0.412330000000     0.0406041  
H190     H      0.311010000000     0.095040000000     0.380630000000     0.0362725  
H191     H      0.395580000000     0.112350000000     0.303150000000     0.0421538  
H192     H      0.359950000000     0.055630000000     0.336000000000     0.0361045  
H193     H      0.639930000000     0.054050000000     0.126340000000     0.0421334  
H194     H      0.680880000000     0.105270000000     0.084910000000     0.0410615  
H195     H      0.625400000000     0.129630000000     0.047930000000     0.0427027  
H196     H      0.612050000000     0.080950000000     0.158070000000     0.0458685  
H197     H      0.559040000000     0.053310000000     0.119250000000     0.0408501  
H198     H      0.556610000000     0.113010000000     0.122580000000     0.036185   
H199     H      0.674400000000     0.164520000000     0.088880000000     0.043863   
H200     H      0.595870000000     0.160680000000     0.076940000000     0.0369666  
H201     H      0.552860000000     0.127340000000     0.330700000000     0.0388284  
H202     H      0.597150000000     0.170720000000     0.373710000000     0.0395984  
H203     H      0.630460000000     0.118660000000     0.410620000000     0.0405518  
H204     H      0.583780000000     0.100870000000     0.300120000000     0.0442428  
H205     H      0.557040000000     0.047200000000     0.339910000000     0.0406101  
H206     H      0.616660000000     0.047960000000     0.336660000000     0.037473   
H207     H      0.656780000000     0.172540000000     0.370960000000     0.0440344  
H208     H      0.662020000000     0.092300000000     0.380330000000     0.0368874  
H209     H      0.555060000000     0.828800000000     0.127510000000     0.0393222  
H210     H      0.605400000000     0.788840000000     0.085390000000     0.0394823  
H211     H      0.634150000000     0.844850000000     0.049920000000     0.0427873  
H212     H      0.582360000000     0.855440000000     0.159630000000     0.0451537  
H213     H      0.555590000000     0.909740000000     0.120770000000     0.0403762  
H214     H      0.615070000000     0.911560000000     0.125140000000     0.0391588  
H215     H      0.664710000000     0.792500000000     0.089950000000     0.044729   
H216     H      0.663900000000     0.872330000000     0.080530000000     0.0397309  
H217     H      0.626580000000     0.905700000000     0.331560000000     0.0379631  
H218     H      0.672650000000     0.861210000000     0.374680000000     0.0387851  
H219     H      0.620960000000     0.831750000000     0.413070000000     0.0404927  
H220     H      0.599110000000     0.873600000000     0.302040000000     0.0414458  
H221     H      0.546640000000     0.901090000000     0.341850000000     0.0407604  
H222     H      0.548280000000     0.841260000000     0.340280000000     0.0391447  
H223     H      0.672060000000     0.801390000000     0.372520000000     0.0436613  
H224     H      0.592950000000     0.798760000000     0.384280000000     0.037962   
H225     H      0.740900000000     0.525560000000     0.016420000000     0.0485956  
H226     H      0.741140000000     0.437530000000     0.017090000000     0.0486178  
H227     H      0.696750000000     0.408620000000     0.973830000000     0.0374722  
H228     H      0.775830000000     0.553470000000     0.488680000000     0.0402693  
H229     H      0.696630000000     0.553110000000     0.472600000000     0.0404646  
H230     H      0.731630000000     0.524070000000     0.445480000000     0.0398034  
H231     H      0.776110000000     0.408970000000     0.989700000000     0.0413828  
H232     H      0.731610000000     0.436750000000     0.446160000000     0.0400131  
H233     H      0.241110000000     0.525520000000     0.514970000000     0.0368903  
H234     H      0.240900000000     0.437000000000     0.014050000000     0.0488225  
H235     H      0.196540000000     0.410000000000     0.970150000000     0.0376074  
H236     H      0.276080000000     0.553980000000     0.487530000000     0.0403725  
H237     H      0.196660000000     0.554430000000     0.471730000000     0.0400893  
H238     H      0.231540000000     0.526370000000     0.444030000000     0.0391474  
H239     H      0.275830000000     0.409540000000     0.986110000000     0.0415461  
H240     H      0.231520000000     0.439250000000     0.943130000000     0.039159   
H241     H      0.810440000000     0.376450000000     0.083410000000     0.0395095  
H242     H      0.857360000000     0.419780000000     0.126810000000     0.0394578  
H243     H      0.884760000000     0.366170000000     0.164620000000     0.043938   
H244     H      0.841060000000     0.347760000000     0.053730000000     0.0434486  
H245     H      0.810880000000     0.296450000000     0.093490000000     0.0450152  
H246     H      0.870610000000     0.294580000000     0.091340000000     0.0396415  
H247     H      0.916980000000     0.416430000000     0.124300000000     0.0405343  
H248     H      0.916120000000     0.337090000000     0.135500000000     0.0367553  
H249     H      0.876150000000     0.299050000000     0.388790000000     0.0375449  
H250     H      0.916910000000     0.343540000000     0.343000000000     0.0378496  
H251     H      0.863750000000     0.377410000000     0.306500000000     0.0456983  
H252     H      0.846600000000     0.331630000000     0.417010000000     0.0400703  
H253     H      0.798060000000     0.296400000000     0.375730000000     0.0433853  
H254     H      0.792400000000     0.355800000000     0.379170000000     0.0381972  
H255     H      0.917170000000     0.403360000000     0.345200000000     0.0407895  
H256     H      0.836090000000     0.405630000000     0.337790000000     0.0401372  
H257     H      0.922580000000     0.642200000000     0.127730000000     0.0411184  
H258     H      0.872280000000     0.681360000000     0.086100000000     0.0402465  
H259     H      0.844720000000     0.625650000000     0.050140000000     0.0429067  
H260     H      0.895990000000     0.615020000000     0.159940000000     0.0451522  
H261     H      0.923670000000     0.561430000000     0.120950000000     0.041076   
H262     H      0.864280000000     0.558220000000     0.125550000000     0.0364305  
H263     H      0.812960000000     0.677170000000     0.090300000000     0.0445672  
H264     H      0.814440000000     0.597540000000     0.080240000000     0.0378049  
H265     H      0.805570000000     0.586080000000     0.381250000000     0.0398682  
H266     H      0.854300000000     0.547670000000     0.337160000000     0.0396033  
H267     H      0.887430000000     0.603870000000     0.303040000000     0.0459706  
H268     H      0.834520000000     0.612770000000     0.412560000000     0.0407096  
H269     H      0.804980000000     0.666160000000     0.372880000000     0.043677   
H270     H      0.864200000000     0.669660000000     0.378030000000     0.037375   
H271     H      0.913790000000     0.548850000000     0.341640000000     0.0403466  
H272     H      0.915160000000     0.629850000000     0.335230000000     0.0384838  
H273     H      0.127640000000     0.561460000000     0.129500000000     0.0411095  
H274     H      0.175490000000     0.607650000000     0.087310000000     0.0398316  
H275     H      0.124180000000     0.632940000000     0.047750000000     0.0421413  
H276     H      0.099090000000     0.593210000000     0.158760000000     0.0455087  
H277     H      0.047450000000     0.566280000000     0.118890000000     0.0410926  
H278     H      0.049740000000     0.626080000000     0.119660000000     0.0378039  
H279     H      0.172110000000     0.667310000000     0.089410000000     0.0444647  
H280     H      0.094330000000     0.667060000000     0.074970000000     0.0387838  
H281     H      0.054540000000     0.632170000000     0.332810000000     0.0386811  
H282     H      0.104280000000     0.670540000000     0.376270000000     0.0392093  
H283     H      0.134360000000     0.613630000000     0.410920000000     0.0411745  
H284     H      0.082590000000     0.605390000000     0.301130000000     0.0463225  
H285     H      0.053320000000     0.551670000000     0.340170000000     0.0400254  
H286     H      0.112710000000     0.548150000000     0.335570000000     0.0387042  
H287     H      0.163700000000     0.667330000000     0.371890000000     0.0432155  
H288     H      0.162790000000     0.586830000000     0.379450000000     0.0381713  
H289     H      0.119190000000     0.415180000000     0.126180000000     0.0385359  
H290     H      0.166960000000     0.375450000000     0.081740000000     0.0388976  
H291     H      0.167610000000     0.295590000000     0.091040000000     0.044273   
H292     H      0.059600000000     0.413590000000     0.122430000000     0.0399763  
H293     H      0.087250000000     0.359600000000     0.161320000000     0.0374385  
H294     H      0.058760000000     0.332850000000     0.129800000000     0.0376356  
H295     H      0.136960000000     0.348030000000     0.051220000000     0.0429258  
H296     H      0.108190000000     0.292130000000     0.086860000000     0.0393671  
H297     H      0.044850000000     0.338570000000     0.343410000000     0.0384739  
H298     H      0.089050000000     0.296230000000     0.387580000000     0.0378217  
H299     H      0.166940000000     0.293680000000     0.373510000000     0.0438172  
H300     H      0.045530000000     0.398440000000     0.343740000000     0.0402985  
H301     H      0.094880000000     0.367280000000     0.303560000000     0.0393323  
H302     H      0.124980000000     0.399660000000     0.331660000000     0.0374381  
H303     H      0.120060000000     0.329280000000     0.414800000000     0.04019    
H304     H      0.171830000000     0.353310000000     0.375060000000     0.0384834  
H305     H      0.731710000000     0.025430000000     0.447530000000     0.0364945  
H306     H      0.731550000000     0.937200000000     0.447260000000     0.0363659  
H307     H      0.776380000000     0.908860000000     0.490400000000     0.0402951  
H308     H      0.696950000000     0.053440000000     0.975310000000     0.0372558  
H309     H      0.776330000000     0.053300000000     0.991000000000     0.041499   
H310     H      0.741560000000     0.024610000000     0.018430000000     0.0521559  
H311     H      0.696810000000     0.908990000000     0.474970000000     0.0401733  
H312     H      0.741680000000     0.937060000000     0.018150000000     0.0518905  
H313     H      0.232100000000     0.939190000000     0.520740000000     0.040186   
H314     H      0.232110000000     0.026030000000     0.020100000000     0.052135   
H315     H      0.275600000000     0.054070000000     0.976140000000     0.037277   
H316     H      0.196500000000     0.909930000000     0.494120000000     0.0406154  
H317     H      0.275310000000     0.909530000000     0.477130000000     0.0403674  
H318     H      0.239770000000     0.937340000000     0.449720000000     0.03632    
H319     H      0.196640000000     0.054440000000     0.992930000000     0.0412949  
H320     H      0.240010000000     0.025640000000     0.949080000000     0.035613   
H321     H      0.941300000000     0.728050000000     0.444430000000     0.0381787  
H322     H      0.028080000000     0.727800000000     0.442540000000     0.0383448  
H323     H      0.059020000000     0.770450000000     0.986000000000     0.0414443  
H324     H      0.913680000000     0.692200000000     0.471770000000     0.0401432  
H325     H      0.914770000000     0.771000000000     0.489200000000     0.0405522  
H326     H      0.944030000000     0.734900000000     0.015480000000     0.0507735  
H327     H      0.057910000000     0.691710000000     0.968540000000     0.0375715  
H328     H      0.031930000000     0.734550000000     0.013580000000     0.0507356  
H329     H      0.944790000000     0.235560000000     0.023570000000     0.0336689  
H330     H      0.031400000000     0.235310000000     0.021790000000     0.0490551  
H331     H      0.058250000000     0.192680000000     0.476960000000     0.0405821  
H332     H      0.914980000000     0.271710000000     0.997620000000     0.0251108  
H333     H      0.914040000000     0.192870000000     0.980070000000     0.041918   
H334     H      0.940890000000     0.228940000000     0.452520000000     0.0385     
H335     H      0.059160000000     0.271370000000     0.494670000000     0.0404719  
H336     H      0.029110000000     0.228900000000     0.450700000000     0.038545   
H337     H      0.915850000000     0.851330000000     0.126400000000     0.038357   
H338     H      0.875270000000     0.804230000000     0.081940000000     0.0394836  
H339     H      0.795220000000     0.807160000000     0.090490000000     0.04478    
H340     H      0.916880000000     0.910950000000     0.122150000000     0.0396421  
H341     H      0.860920000000     0.886920000000     0.160610000000     0.0418074  
H342     H      0.835920000000     0.914950000000     0.128160000000     0.0397608  
H343     H      0.849510000000     0.834740000000     0.050920000000     0.0433485  
H344     H      0.794710000000     0.866750000000     0.086110000000     0.0399537  
H345     H      0.793350000000     0.865860000000     0.377340000000     0.0377885  
H346     H      0.834660000000     0.914790000000     0.335360000000     0.037297   
H347     H      0.915320000000     0.912900000000     0.342770000000     0.0390366  
H348     H      0.795550000000     0.806340000000     0.373170000000     0.0436744  
H349     H      0.847930000000     0.835960000000     0.413400000000     0.0399683  
H350     H      0.875230000000     0.805330000000     0.383090000000     0.0383084  
H351     H      0.861270000000     0.886690000000     0.303550000000     0.0404887  
H352     H      0.916180000000     0.853290000000     0.338610000000     0.0376549  
H353     H      0.849160000000     0.044200000000     0.123820000000     0.0398399  
H354     H      0.806730000000     0.089980000000     0.080110000000     0.0411894  
H355     H      0.809730000000     0.169150000000     0.092240000000     0.045031   
H356     H      0.908910000000     0.043010000000     0.122370000000     0.0394365  
H357     H      0.880490000000     0.094610000000     0.162620000000     0.0369106  
H358     H      0.913090000000     0.122670000000     0.133650000000     0.0360415  
H359     H      0.839840000000     0.118370000000     0.051580000000     0.0429055  
H360     H      0.869490000000     0.169300000000     0.090450000000     0.0381076  
H361     H      0.917800000000     0.112870000000     0.340120000000     0.0409668  
H362     H      0.877840000000     0.160090000000     0.385090000000     0.0401197  
H363     H      0.798690000000     0.162010000000     0.374340000000     0.0433206  
H364     H      0.916050000000     0.053130000000     0.343410000000     0.0392853  
H365     H      0.862780000000     0.080850000000     0.304480000000     0.0387097  
H366     H      0.835370000000     0.052750000000     0.335900000000     0.0352792  
H367     H      0.849340000000     0.129310000000     0.414730000000     0.040528   
H368     H      0.794050000000     0.102530000000     0.378170000000     0.036545   
H369     H      0.141360000000     0.047430000000     0.127910000000     0.0419078  
H370     H      0.180160000000     0.098000000000     0.085970000000     0.0414629  
H371     H      0.123710000000     0.129290000000     0.051820000000     0.042936   
H372     H      0.116240000000     0.074040000000     0.160910000000     0.0442244  
H373     H      0.060300000000     0.049140000000     0.122570000000     0.0395909  
H374     H      0.059440000000     0.108580000000     0.127830000000     0.0348398  
H375     H      0.178110000000     0.157360000000     0.091210000000     0.0448205  
H376     H      0.097850000000     0.158380000000     0.083440000000     0.0372969  
H377     H      0.096880000000     0.158880000000     0.383900000000     0.040214   
H378     H      0.057110000000     0.110710000000     0.339270000000     0.0398402  
H379     H      0.112420000000     0.077820000000     0.304300000000     0.0443049  
H380     H      0.124680000000     0.128650000000     0.414160000000     0.0402429  
H381     H      0.176370000000     0.159640000000     0.373870000000     0.043488   
H382     H      0.180080000000     0.100210000000     0.378230000000     0.0361071  
H383     H      0.058560000000     0.051070000000     0.343290000000     0.0396333  
H384     H      0.139310000000     0.050090000000     0.336150000000     0.0367069  
H385     H      0.099060000000     0.806470000000     0.082420000000     0.0379982  
H386     H      0.062100000000     0.857480000000     0.127350000000     0.0366953  
H387     H      0.120280000000     0.890520000000     0.160050000000     0.0378109  
H388     H      0.125550000000     0.835280000000     0.050950000000     0.0434314  
H389     H      0.179180000000     0.805250000000     0.090270000000     0.0443527  
H390     H      0.182990000000     0.864540000000     0.085030000000     0.0409835  
H391     H      0.064750000000     0.916860000000     0.121940000000     0.0397387  
H392     H      0.145800000000     0.916160000000     0.126860000000     0.0402639  
H393     H      0.055650000000     0.852990000000     0.339030000000     0.0401129  
H394     H      0.095960000000     0.804610000000     0.383480000000     0.0398808  
H395     H      0.175260000000     0.802950000000     0.372860000000     0.0436113  
H396     H      0.058300000000     0.912600000000     0.342740000000     0.0392816  
H397     H      0.110670000000     0.883960000000     0.303210000000     0.0389236  
H398     H      0.138650000000     0.912290000000     0.334340000000     0.0352132  
H399     H      0.124630000000     0.834870000000     0.413340000000     0.0398745  
H400     H      0.179640000000     0.862370000000     0.376790000000     0.0361279  
H401     H      0.895990000000     0.981530000000     0.938080000000     0.206782   
H402     H      0.077620000000     0.982060000000     0.938280000000     0.205818   
H403     H      0.987320000000     0.892000000000     0.527090000000     0.212893   
H404     H      0.985900000000     0.072420000000     0.527560000000     0.208447   
H405     H      0.898200000000     0.483550000000     0.527550000000     0.2126     
H406     H      0.985510000000     0.389230000000     0.940260000000     0.210314   
H407     H      0.078450000000     0.484460000000     0.525640000000     0.20709    
H408     H      0.985070000000     0.569290000000     0.935180000000     0.210058   
H409     H      0.486220000000     0.072750000000     0.524500000000     0.2071     
H410     H      0.395970000000     0.980990000000     0.936610000000     0.213339   
H411     H      0.486400000000     0.891130000000     0.526090000000     0.206426   
H412     H      0.575290000000     0.979910000000     0.935610000000     0.211412   
H413     H      0.486690000000     0.390450000000     0.938140000000     0.20913    
H414     H      0.397750000000     0.482440000000     0.527110000000     0.212481   
H415     H      0.486500000000     0.572370000000     0.937450000000     0.205843   
H416     H      0.578110000000     0.481140000000     0.526800000000     0.206977   
H417     H      0.141030000000     0.222370000000     0.687960000000     0.208087   
H418     H      0.246100000000     0.132880000000     0.779000000000     0.201536   
H419     H      0.333990000000     0.237530000000     0.688440000000     0.209382   
H420     H      0.230040000000     0.328580000000     0.778080000000     0.205027   
H421     H      0.203780000000     0.067770000000     0.736100000000     0.123465   
H422     H      0.296440000000     0.069770000000     0.738400000000     0.18241    
H423     H      0.392910000000     0.204220000000     0.745690000000     0.146088   
H424     H      0.393360000000     0.296600000000     0.714860000000     0.19649    
H425     H      0.268800000000     0.392360000000     0.735090000000     0.123072   
H426     H      0.172810000000     0.391650000000     0.732680000000     0.184642   
H427     H      0.074070000000     0.300870000000     0.728380000000     0.137561   
H428     H      0.082720000000     0.159660000000     0.712490000000     0.198282   
H429     H      0.391750000000     0.299090000000     0.753670000000     0.201164   
H430     H      0.118630000000     0.378600000000     0.731000000000     0.193626   
H431     H      0.082640000000     0.170240000000     0.750680000000     0.209874   
H432     H      0.350120000000     0.078920000000     0.729930000000     0.202124   
H433     H      0.142020000000     0.740610000000     0.686300000000     0.20784    
H434     H      0.228250000000     0.633500000000     0.778100000000     0.200672   
H435     H      0.334560000000     0.722550000000     0.688090000000     0.207931   
H436     H      0.246270000000     0.828850000000     0.778450000000     0.202258   
H437     H      0.176290000000     0.577010000000     0.734060000000     0.124014   
H438     H      0.268250000000     0.563090000000     0.737270000000     0.183154   
H439     H      0.386420000000     0.679470000000     0.744320000000     0.144606   
H440     H      0.402190000000     0.774600000000     0.712200000000     0.197299   
H441     H      0.294930000000     0.885620000000     0.735310000000     0.123071   
H442     H      0.201480000000     0.901400000000     0.734210000000     0.184598   
H443     H      0.089010000000     0.829430000000     0.724610000000     0.137214   
H444     H      0.073830000000     0.686240000000     0.708250000000     0.199169   
H445     H      0.401730000000     0.769820000000     0.750920000000     0.200884   
H446     H      0.145930000000     0.898030000000     0.731570000000     0.193914   
H447     H      0.074050000000     0.700700000000     0.745830000000     0.209734   
H448     H      0.323780000000     0.563330000000     0.733470000000     0.202405   
H449     H      0.834430000000     0.230470000000     0.690610000000     0.211012   
H450     H      0.733910000000     0.328600000000     0.779310000000     0.203314   
H451     H      0.641130000000     0.233220000000     0.685360000000     0.207671   
H452     H      0.731410000000     0.132390000000     0.777930000000     0.202805   
H453     H      0.783400000000     0.389750000000     0.737450000000     0.124936   
H454     H      0.688230000000     0.397030000000     0.737820000000     0.183779   
H455     H      0.582630000000     0.273590000000     0.744190000000     0.145857   
H456     H      0.577540000000     0.173880000000     0.704860000000     0.197919   
H457     H      0.688770000000     0.072720000000     0.732570000000     0.124363   
H458     H      0.782900000000     0.064770000000     0.734020000000     0.184928   
H459     H      0.891350000000     0.142800000000     0.734800000000     0.138139   
H460     H      0.898110000000     0.285510000000     0.719050000000     0.199585   
H461     H      0.573680000000     0.183270000000     0.743100000000     0.201352   
H462     H      0.837900000000     0.071500000000     0.729520000000     0.193403   
H463     H      0.893690000000     0.278770000000     0.757530000000     0.209379   
H464     H      0.633310000000     0.390630000000     0.732620000000     0.199726   
H465     H      0.729010000000     0.829460000000     0.687350000000     0.206138   
H466     H      0.639460000000     0.726480000000     0.777840000000     0.203867   
H467     H      0.745990000000     0.636490000000     0.687390000000     0.208476   
H468     H      0.834910000000     0.741320000000     0.778300000000     0.202362   
H469     H      0.576360000000     0.760310000000     0.730920000000     0.125036   
H470     H      0.576620000000     0.667540000000     0.731810000000     0.184624   
H471     H      0.667800000000     0.569060000000     0.728310000000     0.136733   
H472     H      0.810360000000     0.578810000000     0.710480000000     0.199164   
H473     H      0.899840000000     0.700510000000     0.735140000000     0.124245   
H474     H      0.897740000000     0.793440000000     0.735840000000     0.18336    
H475     H      0.764280000000     0.888270000000     0.748380000000     0.145816   
H476     H      0.686620000000     0.887940000000     0.717930000000     0.192146   
H477     H      0.797470000000     0.577670000000     0.748310000000     0.210301   
H478     H      0.887560000000     0.847510000000     0.729090000000     0.200351   
H479     H      0.637860000000     0.887430000000     0.736740000000     0.203022   
H480     H      0.589940000000     0.613440000000     0.729010000000     0.192771   
H481     H      0.305000000000     0.378360000000     0.578590000000     0.0378641  
H482     H      0.348800000000     0.421770000000     0.622700000000     0.0391666  
H483     H      0.376580000000     0.370080000000     0.661890000000     0.0435853  
H484     H      0.337090000000     0.347790000000     0.550600000000     0.0407361  
H485     H      0.302560000000     0.299610000000     0.591210000000     0.0437171  
H486     H      0.362220000000     0.295170000000     0.589730000000     0.0389149  
H487     H      0.408590000000     0.419670000000     0.621950000000     0.0403126  
H488     H      0.408200000000     0.340060000000     0.633390000000     0.03731    
H489     H      0.376920000000     0.303310000000     0.883850000000     0.0373784  
H490     H      0.417370000000     0.350860000000     0.839310000000     0.0364422  
H491     H      0.362650000000     0.383650000000     0.803870000000     0.0431417  
H492     H      0.348970000000     0.333890000000     0.913900000000     0.0394835  
H493     H      0.297450000000     0.302980000000     0.873560000000     0.0436442  
H494     H      0.294160000000     0.362470000000     0.877570000000     0.0380804  
H495     H      0.416200000000     0.410540000000     0.843010000000     0.039969   
H496     H      0.335540000000     0.411870000000     0.835430000000     0.0389951  
H497     H      0.378720000000     0.659700000000     0.582910000000     0.0386465  
H498     H      0.416850000000     0.610270000000     0.627210000000     0.0401922  
H499     H      0.360120000000     0.576080000000     0.660530000000     0.0434778  
H500     H      0.352700000000     0.630780000000     0.551290000000     0.0407182  
H501     H      0.298470000000     0.659280000000     0.590650000000     0.0439013  
H502     H      0.295990000000     0.599930000000     0.585500000000     0.0385875  
H503     H      0.415900000000     0.550750000000     0.622240000000     0.0404468  
H504     H      0.334830000000     0.549230000000     0.627690000000     0.038861   
H505     H      0.305080000000     0.586740000000     0.886570000000     0.0378868  
H506     H      0.348570000000     0.542510000000     0.842250000000     0.0379096  
H507     H      0.377400000000     0.593720000000     0.803040000000     0.0411625  
H508     H      0.337830000000     0.617260000000     0.914210000000     0.0394135  
H509     H      0.303460000000     0.665260000000     0.873220000000     0.0431556  
H510     H      0.363090000000     0.669180000000     0.874750000000     0.0384964  
H511     H      0.408340000000     0.543890000000     0.843190000000     0.0396013  
H512     H      0.408930000000     0.623590000000     0.831710000000     0.0377077  
H513     H      0.557700000000     0.611840000000     0.625000000000     0.0402839  
H514     H      0.598580000000     0.658600000000     0.579930000000     0.0400018  
H515     H      0.677960000000     0.658930000000     0.590420000000     0.0435875  
H516     H      0.558950000000     0.552100000000     0.621770000000     0.0392233  
H517     H      0.612450000000     0.579680000000     0.660750000000     0.0363834  
H518     H      0.639550000000     0.550970000000     0.629440000000     0.0352666  
H519     H      0.626530000000     0.627240000000     0.550300000000     0.0403544  
H520     H      0.681150000000     0.599320000000     0.587010000000     0.036639   
H521     H      0.622480000000     0.541570000000     0.842140000000     0.0396824  
H522     H      0.667200000000     0.584620000000     0.886540000000     0.0396506  
H523     H      0.672310000000     0.662680000000     0.872830000000     0.0431503  
H524     H      0.562800000000     0.545620000000     0.842710000000     0.0391457  
H525     H      0.596870000000     0.593450000000     0.802500000000     0.0389454  
H526     H      0.565570000000     0.624820000000     0.830480000000     0.0353462  
H527     H      0.635290000000     0.616620000000     0.913810000000     0.0398391  
H528     H      0.612890000000     0.669390000000     0.874180000000     0.0370105  
H529     H      0.597130000000     0.303180000000     0.581040000000     0.038472   
H530     H      0.558250000000     0.351430000000     0.626040000000     0.0405051  
H531     H      0.614420000000     0.385530000000     0.660070000000     0.041541   
H532     H      0.624080000000     0.333320000000     0.550380000000     0.0404006  
H533     H      0.676880000000     0.302860000000     0.590220000000     0.043169   
H534     H      0.680130000000     0.362330000000     0.585690000000     0.0382056  
H535     H      0.559140000000     0.411070000000     0.621770000000     0.0393917  
H536     H      0.640240000000     0.412430000000     0.627480000000     0.0371751  
H537     H      0.599490000000     0.289510000000     0.874180000000     0.0381035  
H538     H      0.555720000000     0.335540000000     0.831540000000     0.037404   
H539     H      0.559560000000     0.415250000000     0.842540000000     0.0397615  
H540     H      0.659200000000     0.289320000000     0.872280000000     0.0437283  
H541     H      0.629340000000     0.340190000000     0.913050000000     0.0397168  
H542     H      0.662670000000     0.368470000000     0.884580000000     0.0387104  
H543     H      0.587630000000     0.363590000000     0.802170000000     0.0394776  
H544     H      0.619260000000     0.414570000000     0.840520000000     0.0378223  
H545     H      0.529510000000     0.735940000000     0.945610000000     0.037206   
H546     H      0.442160000000     0.735630000000     0.946340000000     0.037472   
H547     H      0.414590000000     0.691700000000     0.490340000000     0.0403322  
H548     H      0.558350000000     0.771310000000     0.972600000000     0.0375778  
H549     H      0.558890000000     0.692080000000     0.489000000000     0.0403061  
H550     H      0.530940000000     0.727270000000     0.516580000000     0.0382925  
H551     H      0.414040000000     0.770840000000     0.973840000000     0.0371948  
H552     H      0.443400000000     0.727100000000     0.517320000000     0.0379185  
H553     H      0.443250000000     0.234000000000     0.016750000000     0.0502685  
H554     H      0.530760000000     0.233780000000     0.515660000000     0.0377405  
H555     H      0.558010000000     0.192000000000     0.470500000000     0.0403479  
H556     H      0.414290000000     0.270590000000     0.990600000000     0.0413417  
H557     H      0.413740000000     0.192110000000     0.972340000000     0.0373157  
H558     H      0.441640000000     0.228620000000     0.945610000000     0.0371956  
H559     H      0.558570000000     0.270340000000     0.488920000000     0.0402583  
H560     H      0.528780000000     0.228600000000     0.444510000000     0.0380647  
H561     H      0.309860000000     0.871790000000     0.581360000000     0.0405254  
H562     H      0.356930000000     0.913980000000     0.625200000000     0.0416168  
H563     H      0.389430000000     0.859890000000     0.661120000000     0.0447072  
H564     H      0.340440000000     0.844510000000     0.551020000000     0.0400653  
H565     H      0.311780000000     0.791860000000     0.591100000000     0.043976   
H566     H      0.371340000000     0.790580000000     0.587390000000     0.0368789  
H567     H      0.416500000000     0.913310000000     0.621480000000     0.0409106  
H568     H      0.418850000000     0.832920000000     0.630080000000     0.0361747  
H569     H      0.419570000000     0.825470000000     0.837140000000     0.0392428  
H570     H      0.369810000000     0.785370000000     0.878470000000     0.0388489  
H571     H      0.339800000000     0.841150000000     0.913570000000     0.0400204  
H572     H      0.393080000000     0.850610000000     0.804120000000     0.0441082  
H573     H      0.417050000000     0.906820000000     0.842230000000     0.041267   
H574     H      0.357580000000     0.906790000000     0.837600000000     0.0375542  
H575     H      0.310440000000     0.787570000000     0.873730000000     0.04317    
H576     H      0.309360000000     0.867510000000     0.882780000000     0.0361728  
H577     H      0.354840000000     0.049110000000     0.623490000000     0.0408321  
H578     H      0.308830000000     0.091700000000     0.579200000000     0.0403555  
H579     H      0.309310000000     0.170930000000     0.590730000000     0.0442358  
H580     H      0.414480000000     0.049620000000     0.620450000000     0.0408776  
H581     H      0.387310000000     0.102230000000     0.660210000000     0.042892   
H582     H      0.416690000000     0.130060000000     0.629490000000     0.0381919  
H583     H      0.340340000000     0.120260000000     0.549900000000     0.040041   
H584     H      0.368830000000     0.173610000000     0.587340000000     0.0371717  
H585     H      0.373450000000     0.175870000000     0.878170000000     0.0393199  
H586     H      0.422320000000     0.136660000000     0.836360000000     0.039694   
H587     H      0.419340000000     0.055430000000     0.841210000000     0.0405341  
H588     H      0.314020000000     0.175600000000     0.873320000000     0.0432348  
H589     H      0.340670000000     0.120040000000     0.912320000000     0.0401774  
H590     H      0.311010000000     0.095040000000     0.880630000000     0.0362289  
H591     H      0.395580000000     0.112350000000     0.803150000000     0.0422506  
H592     H      0.359950000000     0.055630000000     0.836000000000     0.0361965  
H593     H      0.639930000000     0.054050000000     0.626340000000     0.0419155  
H594     H      0.680880000000     0.105270000000     0.584910000000     0.0401065  
H595     H      0.625400000000     0.129630000000     0.547930000000     0.0401282  
H596     H      0.612050000000     0.080950000000     0.658070000000     0.045915   
H597     H      0.559040000000     0.053310000000     0.619250000000     0.0408193  
H598     H      0.556610000000     0.113010000000     0.622580000000     0.0360548  
H599     H      0.674400000000     0.164520000000     0.588880000000     0.0429563  
H600     H      0.595870000000     0.160680000000     0.576940000000     0.0359296  
H601     H      0.552860000000     0.127340000000     0.830700000000     0.0389168  
H602     H      0.597150000000     0.170720000000     0.873710000000     0.039572   
H603     H      0.630460000000     0.118660000000     0.910620000000     0.0401152  
H604     H      0.583780000000     0.100870000000     0.800120000000     0.0443267  
H605     H      0.557040000000     0.047200000000     0.839910000000     0.0407074  
H606     H      0.616660000000     0.047960000000     0.836670000000     0.0375742  
H607     H      0.656780000000     0.172540000000     0.870960000000     0.0438302  
H608     H      0.662020000000     0.092300000000     0.880330000000     0.0368246  
H609     H      0.555060000000     0.828800000000     0.627510000000     0.0391111  
H610     H      0.605400000000     0.788840000000     0.585390000000     0.0385334  
H611     H      0.634150000000     0.844850000000     0.549920000000     0.0402559  
H612     H      0.582360000000     0.855440000000     0.659630000000     0.0451967  
H613     H      0.555590000000     0.909740000000     0.620770000000     0.040348   
H614     H      0.615070000000     0.911560000000     0.625140000000     0.0390365  
H615     H      0.664710000000     0.792500000000     0.589950000000     0.0438483  
H616     H      0.663900000000     0.872330000000     0.580530000000     0.0387604  
H617     H      0.626580000000     0.905700000000     0.831560000000     0.0380607  
H618     H      0.672650000000     0.861210000000     0.874680000000     0.0387299  
H619     H      0.620960000000     0.831750000000     0.913070000000     0.0400262  
H620     H      0.599110000000     0.873600000000     0.802040000000     0.0415329  
H621     H      0.546640000000     0.901090000000     0.841850000000     0.0408629  
H622     H      0.548280000000     0.841260000000     0.840280000000     0.0392437  
H623     H      0.672060000000     0.801390000000     0.872520000000     0.0434303  
H624     H      0.592950000000     0.798760000000     0.884280000000     0.0378934  
H625     H      0.740900000000     0.525560000000     0.516420000000     0.0365064  
H626     H      0.741140000000     0.437530000000     0.517090000000     0.0365419  
H627     H      0.696750000000     0.408620000000     0.473830000000     0.0404982  
H628     H      0.775830000000     0.553470000000     0.988680000000     0.0412625  
H629     H      0.696630000000     0.553110000000     0.972600000000     0.0374945  
H630     H      0.731630000000     0.524070000000     0.945490000000     0.0391947  
H631     H      0.776110000000     0.408970000000     0.489700000000     0.0403589  
H632     H      0.731610000000     0.436750000000     0.946160000000     0.0393794  
H633     H      0.241110000000     0.525520000000     0.014970000000     0.0490065  
H634     H      0.240900000000     0.437000000000     0.514050000000     0.036723   
H635     H      0.196540000000     0.410000000000     0.470150000000     0.0405334  
H636     H      0.276080000000     0.553980000000     0.987520000000     0.0414302  
H637     H      0.196660000000     0.554430000000     0.971730000000     0.037063   
H638     H      0.231540000000     0.526370000000     0.944030000000     0.0385137  
H639     H      0.275830000000     0.409540000000     0.486110000000     0.0404812  
H640     H      0.231520000000     0.439250000000     0.443130000000     0.039771   
H641     H      0.810440000000     0.376450000000     0.583410000000     0.0385007  
H642     H      0.857360000000     0.419780000000     0.626810000000     0.0393109  
H643     H      0.884760000000     0.366170000000     0.664620000000     0.0439904  
H644     H      0.841060000000     0.347760000000     0.553730000000     0.0407665  
H645     H      0.810880000000     0.296450000000     0.593490000000     0.0441246  
H646     H      0.870610000000     0.294580000000     0.591350000000     0.0386418  
H647     H      0.916980000000     0.416430000000     0.624300000000     0.0404936  
H648     H      0.916120000000     0.337090000000     0.635500000000     0.0365534  
H649     H      0.876150000000     0.299050000000     0.888790000000     0.0373683  
H650     H      0.916910000000     0.343540000000     0.843000000000     0.0379244  
H651     H      0.863750000000     0.377410000000     0.806500000000     0.0457866  
H652     H      0.846600000000     0.331630000000     0.917010000000     0.0395455  
H653     H      0.798060000000     0.296400000000     0.875730000000     0.0431612  
H654     H      0.792400000000     0.355800000000     0.879170000000     0.0381506  
H655     H      0.917170000000     0.403360000000     0.845200000000     0.0408902  
H656     H      0.836090000000     0.405630000000     0.837790000000     0.0402432  
H657     H      0.922580000000     0.642200000000     0.627730000000     0.0409293  
H658     H      0.872280000000     0.681360000000     0.586100000000     0.0393596  
H659     H      0.844720000000     0.625650000000     0.550140000000     0.0403536  
H660     H      0.895990000000     0.615020000000     0.659940000000     0.0452039  
H661     H      0.923670000000     0.561430000000     0.620950000000     0.0410515  
H662     H      0.864280000000     0.558220000000     0.625550000000     0.0363012  
H663     H      0.812960000000     0.677170000000     0.590300000000     0.0437004  
H664     H      0.814440000000     0.597540000000     0.580240000000     0.0367495  
H665     H      0.805570000000     0.586080000000     0.881250000000     0.0398393  
H666     H      0.854300000000     0.547670000000     0.837160000000     0.0397409  
H667     H      0.887430000000     0.603870000000     0.803040000000     0.0460504  
H668     H      0.834520000000     0.612770000000     0.912560000000     0.0402599  
H669     H      0.804980000000     0.666160000000     0.872880000000     0.0434382  
H670     H      0.864200000000     0.669660000000     0.878030000000     0.0372817  
H671     H      0.913790000000     0.548850000000     0.841640000000     0.0404869  
H672     H      0.915160000000     0.629850000000     0.835230000000     0.038571   
H673     H      0.127640000000     0.561460000000     0.629500000000     0.0409599  
H674     H      0.175490000000     0.607650000000     0.587310000000     0.0389848  
H675     H      0.124180000000     0.632940000000     0.547750000000     0.039613   
H676     H      0.099090000000     0.593210000000     0.658760000000     0.0455634  
H677     H      0.047450000000     0.566280000000     0.618890000000     0.0410676  
H678     H      0.049740000000     0.626080000000     0.619660000000     0.0376275  
H679     H      0.172110000000     0.667310000000     0.589410000000     0.0436008  
H680     H      0.094330000000     0.667060000000     0.574970000000     0.0376959  
H681     H      0.054540000000     0.632170000000     0.832810000000     0.0387784  
H682     H      0.104280000000     0.670540000000     0.876270000000     0.0391354  
H683     H      0.134360000000     0.613630000000     0.910920000000     0.0407155  
H684     H      0.082590000000     0.605390000000     0.801130000000     0.0464115  
H685     H      0.053320000000     0.551670000000     0.840170000000     0.0401347  
H686     H      0.112710000000     0.548150000000     0.835570000000     0.0388069  
H687     H      0.163700000000     0.667330000000     0.871890000000     0.0429866  
H688     H      0.162790000000     0.586830000000     0.879450000000     0.0381179  
H689     H      0.119190000000     0.415180000000     0.626180000000     0.0384284  
H690     H      0.166960000000     0.375450000000     0.581740000000     0.0379849  
H691     H      0.167610000000     0.295590000000     0.591040000000     0.0433789  
H692     H      0.059600000000     0.413590000000     0.622430000000     0.039935   
H693     H      0.087250000000     0.359600000000     0.661320000000     0.0374765  
H694     H      0.058760000000     0.332850000000     0.629800000000     0.0373717  
H695     H      0.136960000000     0.348030000000     0.551210000000     0.0403585  
H696     H      0.108190000000     0.292130000000     0.586860000000     0.0383109  
H697     H      0.044850000000     0.338570000000     0.843410000000     0.0385528  
H698     H      0.089050000000     0.296230000000     0.887580000000     0.0377285  
H699     H      0.166940000000     0.293680000000     0.873500000000     0.0435969  
H700     H      0.045530000000     0.398440000000     0.843740000000     0.040392   
H701     H      0.094880000000     0.367280000000     0.803560000000     0.0394386  
H702     H      0.124980000000     0.399660000000     0.831660000000     0.0375521  
H703     H      0.120060000000     0.329280000000     0.914800000000     0.0397005  
H704     H      0.171830000000     0.353310000000     0.875060000000     0.0384138  
H705     H      0.731710000000     0.025430000000     0.947530000000     0.0358461  
H706     H      0.731550000000     0.937200000000     0.947260000000     0.035726   
H707     H      0.776380000000     0.908860000000     0.990410000000     0.041258   
H708     H      0.696950000000     0.053440000000     0.475310000000     0.0403765  
H709     H      0.776330000000     0.053300000000     0.491000000000     0.0406075  
H710     H      0.741560000000     0.024610000000     0.518430000000     0.0401719  
H711     H      0.696810000000     0.908990000000     0.974970000000     0.037063   
H712     H      0.741680000000     0.937060000000     0.518150000000     0.0398832  
H713     H      0.232100000000     0.939190000000     0.020740000000     0.0521363  
H714     H      0.232110000000     0.026030000000     0.520100000000     0.0401779  
H715     H      0.275600000000     0.054070000000     0.476140000000     0.0403808  
H716     H      0.196500000000     0.909930000000     0.994120000000     0.041412   
H717     H      0.275310000000     0.909530000000     0.977130000000     0.0372298  
H718     H      0.239770000000     0.937340000000     0.949720000000     0.0356648  
H719     H      0.196640000000     0.054440000000     0.492930000000     0.0404154  
H720     H      0.240010000000     0.025640000000     0.449080000000     0.0362503  
H721     H      0.941300000000     0.728050000000     0.944430000000     0.0375384  
H722     H      0.028080000000     0.727800000000     0.942540000000     0.0377361  
H723     H      0.059020000000     0.770450000000     0.486010000000     0.0403691  
H724     H      0.913680000000     0.692200000000     0.971770000000     0.0371334  
H725     H      0.914770000000     0.771000000000     0.989200000000     0.0414415  
H726     H      0.944030000000     0.734900000000     0.515470000000     0.0387516  
H727     H      0.057910000000     0.691710000000     0.468540000000     0.0404859  
H728     H      0.031930000000     0.734550000000     0.513580000000     0.0386399  
H729     H      0.944790000000     0.235560000000     0.523570000000     0.0376732  
H730     H      0.031400000000     0.235310000000     0.521790000000     0.0378283  
H731     H      0.058250000000     0.192680000000     0.976960000000     0.0379225  
H732     H      0.914980000000     0.271710000000     0.497620000000     0.040597   
H733     H      0.914040000000     0.192870000000     0.480070000000     0.0402267  
H734     H      0.940890000000     0.228940000000     0.952520000000     0.0421971  
H735     H      0.059160000000     0.271370000000     0.994670000000     0.0409939  
H736     H      0.029110000000     0.228900000000     0.950700000000     0.0381699  
H737     H      0.915850000000     0.851330000000     0.626400000000     0.0382462  
H738     H      0.875270000000     0.804230000000     0.581940000000     0.0385097  
H739     H      0.795220000000     0.807160000000     0.590490000000     0.0439032  
H740     H      0.916880000000     0.910950000000     0.622150000000     0.0396254  
H741     H      0.860920000000     0.886920000000     0.660610000000     0.0418442  
H742     H      0.835920000000     0.914950000000     0.628160000000     0.0395282  
H743     H      0.849510000000     0.834740000000     0.550920000000     0.0407395  
H744     H      0.794710000000     0.866750000000     0.586110000000     0.0389733  
H745     H      0.793350000000     0.865860000000     0.877340000000     0.037703   
H746     H      0.834660000000     0.914790000000     0.835360000000     0.0374074  
H747     H      0.915320000000     0.912900000000     0.842770000000     0.0391539  
H748     H      0.795550000000     0.806340000000     0.873170000000     0.0434088  
H749     H      0.847930000000     0.835960000000     0.913400000000     0.0395163  
H750     H      0.875230000000     0.805330000000     0.883090000000     0.0382602  
H751     H      0.861270000000     0.886690000000     0.803560000000     0.0405904  
H752     H      0.916180000000     0.853290000000     0.838610000000     0.03776    
H753     H      0.849160000000     0.044200000000     0.623820000000     0.03965    
H754     H      0.806730000000     0.089980000000     0.580110000000     0.0400943  
H755     H      0.809730000000     0.169150000000     0.592240000000     0.0441407  
H756     H      0.908910000000     0.043010000000     0.622370000000     0.0394006  
H757     H      0.880490000000     0.094610000000     0.662620000000     0.0369574  
H758     H      0.913090000000     0.122670000000     0.633650000000     0.035868   
H759     H      0.839840000000     0.118370000000     0.551570000000     0.0402949  
H760     H      0.869490000000     0.169300000000     0.590450000000     0.0371535  
H761     H      0.917800000000     0.112870000000     0.840120000000     0.0410446  
H762     H      0.877840000000     0.160090000000     0.885090000000     0.0400213  
H763     H      0.798690000000     0.162010000000     0.874340000000     0.043073   
H764     H      0.916050000000     0.053130000000     0.843410000000     0.0393745  
H765     H      0.862780000000     0.080850000000     0.804480000000     0.0388203  
H766     H      0.835370000000     0.052750000000     0.835900000000     0.0354005  
H767     H      0.849340000000     0.129310000000     0.914740000000     0.0400161  
H768     H      0.794050000000     0.102530000000     0.878170000000     0.0364668  
H769     H      0.141360000000     0.047430000000     0.627910000000     0.0416589  
H770     H      0.180160000000     0.098000000000     0.585970000000     0.0404359  
H771     H      0.123710000000     0.129290000000     0.551820000000     0.0403574  
H772     H      0.116240000000     0.074040000000     0.660910000000     0.0442739  
H773     H      0.060300000000     0.049140000000     0.622570000000     0.0395503  
H774     H      0.059440000000     0.108580000000     0.627830000000     0.0347205  
H775     H      0.178110000000     0.157360000000     0.591210000000     0.0439302  
H776     H      0.097850000000     0.158380000000     0.583440000000     0.036355   
H777     H      0.096880000000     0.158880000000     0.883900000000     0.0401348  
H778     H      0.057110000000     0.110710000000     0.839270000000     0.0399346  
H779     H      0.112420000000     0.077820000000     0.804300000000     0.0443985  
H780     H      0.124680000000     0.128650000000     0.914160000000     0.0397742  
H781     H      0.176370000000     0.159640000000     0.873870000000     0.043287   
H782     H      0.180080000000     0.100210000000     0.878230000000     0.0360716  
H783     H      0.058560000000     0.051070000000     0.843290000000     0.0397422  
H784     H      0.139310000000     0.050090000000     0.836150000000     0.0368124  
H785     H      0.099060000000     0.806470000000     0.582420000000     0.0370712  
H786     H      0.062100000000     0.857480000000     0.627350000000     0.0366003  
H787     H      0.120280000000     0.890520000000     0.660050000000     0.0378557  
H788     H      0.125550000000     0.835280000000     0.550950000000     0.0408361  
H789     H      0.179180000000     0.805250000000     0.590270000000     0.0434701  
H790     H      0.182990000000     0.864540000000     0.585040000000     0.0399482  
H791     H      0.064750000000     0.916860000000     0.621940000000     0.0396959  
H792     H      0.145800000000     0.916160000000     0.626860000000     0.0399956  
H793     H      0.055650000000     0.852990000000     0.839030000000     0.0402253  
H794     H      0.095960000000     0.804610000000     0.883480000000     0.0398259  
H795     H      0.175260000000     0.802950000000     0.872860000000     0.0433742  
H796     H      0.058300000000     0.912600000000     0.842740000000     0.039396   
H797     H      0.110670000000     0.883960000000     0.803210000000     0.0389821  
H798     H      0.138650000000     0.912290000000     0.834340000000     0.0352922  
H799     H      0.124630000000     0.834870000000     0.913340000000     0.0394056  
H800     H      0.179640000000     0.862370000000     0.876790000000     0.0360607  
N1       N      0.338660000000     0.330310000000     0.129030000000    -0.162468   
N2       N      0.374510000000     0.387380000000     0.083730000000    -0.165133   
N3       N      0.326110000000     0.341900000000     0.336200000000    -0.16207    
N4       N      0.387100000000     0.372990000000     0.380970000000    -0.16547    
N5       N      0.325440000000     0.619220000000     0.128060000000    -0.161193   
N6       N      0.388800000000     0.589900000000     0.084370000000    -0.164141   
N7       N      0.339410000000     0.633880000000     0.335560000000    -0.162521   
N8       N      0.374390000000     0.576580000000     0.381340000000    -0.165741   
N9       N      0.649080000000     0.620900000000     0.128080000000    -0.162567   
N10      N      0.588010000000     0.589020000000     0.083550000000    -0.164236   
N11      N      0.635260000000     0.633050000000     0.335090000000    -0.162067   
N12      N      0.597640000000     0.577030000000     0.380910000000    -0.164963   
N13      N      0.649280000000     0.342380000000     0.127600000000    -0.161809   
N14      N      0.586950000000     0.372900000000     0.083670000000    -0.164807   
N15      N      0.593800000000     0.382170000000     0.380430000000    -0.165018   
N16      N      0.624880000000     0.322730000000     0.334610000000    -0.162366   
N17      N      0.486790000000     0.686920000000     0.990470000000    -0.164541   
N18      N      0.486140000000     0.776050000000     0.972530000000    -0.168933   
N19      N      0.485860000000     0.187040000000     0.470710000000    -0.166636   
N20      N      0.486440000000     0.275440000000     0.490700000000    -0.166635   
N21      N      0.349260000000     0.821900000000     0.128640000000    -0.161796   
N22      N      0.379290000000     0.883380000000     0.083730000000    -0.164372   
N23      N      0.378800000000     0.878850000000     0.380290000000    -0.16541    
N24      N      0.349730000000     0.815800000000     0.336430000000    -0.162248   
N25      N      0.347040000000     0.140630000000     0.128030000000    -0.161244   
N26      N      0.378210000000     0.080510000000     0.082570000000    -0.164185   
N27      N      0.380410000000     0.082890000000     0.379080000000    -0.165759   
N28      N      0.352570000000     0.147020000000     0.335740000000    -0.16273    
N29      N      0.587270000000     0.090930000000     0.081050000000    -0.164301   
N30      N      0.647340000000     0.124280000000     0.125980000000    -0.161281   
N31      N      0.592960000000     0.078600000000     0.377760000000    -0.165994   
N32      N      0.622110000000     0.140010000000     0.333010000000    -0.162417   
N33      N      0.594220000000     0.882090000000     0.082890000000    -0.164224   
N34      N      0.625010000000     0.819950000000     0.127300000000    -0.161003   
N35      N      0.580080000000     0.867880000000     0.380040000000    -0.1654     
N36      N      0.639820000000     0.836500000000     0.334750000000    -0.162209   
N37      N      0.691700000000     0.480840000000     0.472630000000    -0.166621   
N38      N      0.780930000000     0.481240000000     0.490200000000    -0.166997   
N39      N      0.191560000000     0.482240000000     0.970430000000    -0.168366   
N40      N      0.280930000000     0.481730000000     0.988170000000    -0.163947   
N41      N      0.846600000000     0.327170000000     0.131590000000    -0.16168    
N42      N      0.880080000000     0.386490000000     0.086500000000    -0.164549   
N43      N      0.826620000000     0.335640000000     0.338630000000    -0.162084   
N44      N      0.886180000000     0.368460000000     0.383730000000    -0.165441   
N45      N      0.884110000000     0.588030000000     0.083150000000    -0.164104   
N46      N      0.852470000000     0.649490000000     0.127680000000    -0.161312   
N47      N      0.845330000000     0.639710000000     0.335550000000    -0.161122   
N48      N      0.875320000000     0.576490000000     0.379570000000    -0.164551   
N49      N      0.082250000000     0.598080000000     0.080610000000    -0.164953   
N50      N      0.140310000000     0.630820000000     0.126680000000    -0.16165    
N51      N      0.092890000000     0.577910000000     0.377910000000    -0.164435   
N52      N      0.124500000000     0.640640000000     0.334070000000    -0.160937   
N53      N      0.128580000000     0.323150000000     0.128620000000    -0.162101   
N54      N      0.097290000000     0.385330000000     0.084350000000    -0.163973   
N55      N      0.136030000000     0.330200000000     0.335940000000    -0.162199   
N56      N      0.079280000000     0.365600000000     0.381930000000    -0.165132   
N57      N      0.781380000000     0.981060000000     0.491450000000    -0.166454   
N58      N      0.691890000000     0.981230000000     0.973980000000    -0.16864    
N59      N      0.280370000000     0.981770000000     0.475420000000    -0.167123   
N60      N      0.191580000000     0.982210000000     0.993850000000    -0.164393   
N61      N      0.986990000000     0.775640000000     0.988700000000    -0.164349   
N62      N      0.985730000000     0.686960000000     0.969730000000    -0.168951   
N63      N      0.986050000000     0.187820000000     0.477170000000    -0.166355   
N64      N      0.987120000000     0.276590000000     0.496520000000    -0.166435   
N65      N      0.824610000000     0.845240000000     0.128010000000    -0.161917   
N66      N      0.887570000000     0.873660000000     0.084120000000    -0.164777   
N67      N      0.886450000000     0.874900000000     0.380580000000    -0.165056   
N68      N      0.824650000000     0.844910000000     0.335820000000    -0.161906   
N69      N      0.844080000000     0.136030000000     0.130000000000    -0.162672   
N70      N      0.875700000000     0.076860000000     0.084370000000    -0.164737   
N71      N      0.826530000000     0.122800000000     0.336950000000    -0.162392   
N72      N      0.887270000000     0.090360000000     0.381570000000    -0.16477    
N73      N      0.087240000000     0.088650000000     0.084810000000    -0.164704   
N74      N      0.150850000000     0.117400000000     0.128560000000    -0.161335   
N75      N      0.148460000000     0.120100000000     0.336590000000    -0.161934   
N76      N      0.086980000000     0.089150000000     0.381210000000    -0.164881   
N77      N      0.153270000000     0.845950000000     0.127640000000    -0.16198    
N78      N      0.089980000000     0.876400000000     0.084150000000    -0.164051   
N79      N      0.147230000000     0.842250000000     0.335490000000    -0.16189    
N80      N      0.086710000000     0.874410000000     0.380570000000    -0.164713   
N81      N      0.338660000000     0.330310000000     0.629030000000    -0.162494   
N82      N      0.374510000000     0.387380000000     0.583730000000    -0.165772   
N83      N      0.326110000000     0.341900000000     0.836200000000    -0.162034   
N84      N      0.387100000000     0.372990000000     0.880970000000    -0.165362   
N85      N      0.325440000000     0.619220000000     0.628060000000    -0.161225   
N86      N      0.388800000000     0.589900000000     0.584370000000    -0.164761   
N87      N      0.339410000000     0.633880000000     0.835560000000    -0.162534   
N88      N      0.374390000000     0.576580000000     0.881340000000    -0.165591   
N89      N      0.649080000000     0.620900000000     0.628080000000    -0.162594   
N90      N      0.588010000000     0.589020000000     0.583550000000    -0.164867   
N91      N      0.635260000000     0.633050000000     0.835090000000    -0.162039   
N92      N      0.597640000000     0.577030000000     0.880910000000    -0.164851   
N93      N      0.649280000000     0.342380000000     0.627600000000    -0.161814   
N94      N      0.586950000000     0.372900000000     0.583670000000    -0.165427   
N95      N      0.593800000000     0.382170000000     0.880430000000    -0.164897   
N96      N      0.624880000000     0.322730000000     0.834610000000    -0.162338   
N97      N      0.486790000000     0.686920000000     0.490470000000    -0.167056   
N98      N      0.486140000000     0.776050000000     0.472530000000    -0.167033   
N99      N      0.485860000000     0.187040000000     0.970710000000    -0.168518   
N100     N      0.486440000000     0.275440000000     0.990700000000    -0.164154   
N101     N      0.349260000000     0.821900000000     0.628640000000    -0.161822   
N102     N      0.379290000000     0.883380000000     0.583730000000    -0.16497    
N103     N      0.378800000000     0.878850000000     0.880300000000    -0.165363   
N104     N      0.349730000000     0.815800000000     0.836420000000    -0.162262   
N105     N      0.347040000000     0.140630000000     0.628030000000    -0.161271   
N106     N      0.378210000000     0.080510000000     0.582580000000    -0.16473    
N107     N      0.380410000000     0.082890000000     0.879080000000    -0.1656     
N108     N      0.352570000000     0.147020000000     0.835750000000    -0.162579   
N109     N      0.587270000000     0.090930000000     0.581050000000    -0.164908   
N110     N      0.647340000000     0.124280000000     0.625980000000    -0.16131    
N111     N      0.592960000000     0.078600000000     0.877750000000    -0.165832   
N112     N      0.622110000000     0.140010000000     0.833000000000    -0.162444   
N113     N      0.594220000000     0.882090000000     0.582890000000    -0.164823   
N114     N      0.625010000000     0.819950000000     0.627300000000    -0.161036   
N115     N      0.580080000000     0.867880000000     0.880040000000    -0.16526    
N116     N      0.639820000000     0.836500000000     0.834750000000    -0.16218    
N117     N      0.691700000000     0.480840000000     0.972630000000    -0.168533   
N118     N      0.780930000000     0.481240000000     0.990210000000    -0.164469   
N119     N      0.191560000000     0.482240000000     0.470430000000    -0.16646    
N120     N      0.280930000000     0.481730000000     0.488170000000    -0.166481   
N121     N      0.846600000000     0.327170000000     0.631590000000    -0.16171    
N122     N      0.880080000000     0.386490000000     0.586500000000    -0.165189   
N123     N      0.826620000000     0.335640000000     0.838630000000    -0.16204    
N124     N      0.886180000000     0.368460000000     0.883730000000    -0.165353   
N125     N      0.884110000000     0.588030000000     0.583150000000    -0.164716   
N126     N      0.852470000000     0.649490000000     0.627680000000    -0.161338   
N127     N      0.845330000000     0.639710000000     0.835550000000    -0.161099   
N128     N      0.875320000000     0.576490000000     0.879570000000    -0.164426   
N129     N      0.082250000000     0.598080000000     0.580610000000    -0.165559   
N130     N      0.140310000000     0.630820000000     0.626680000000    -0.161675   
N131     N      0.092890000000     0.577910000000     0.877910000000    -0.164333   
N132     N      0.124500000000     0.640640000000     0.834070000000    -0.160906   
N133     N      0.128580000000     0.323150000000     0.628620000000    -0.162142   
N134     N      0.097290000000     0.385330000000     0.584350000000    -0.164591   
N135     N      0.136030000000     0.330200000000     0.835940000000    -0.162197   
N136     N      0.079280000000     0.365600000000     0.881930000000    -0.165068   
N137     N      0.781380000000     0.981060000000     0.991450000000    -0.163933   
N138     N      0.691890000000     0.981230000000     0.473970000000    -0.166683   
N139     N      0.280370000000     0.981770000000     0.975420000000    -0.169075   
N140     N      0.191580000000     0.982210000000     0.493850000000    -0.16687    
N141     N      0.986990000000     0.775640000000     0.488700000000    -0.166847   
N142     N      0.985730000000     0.686960000000     0.469730000000    -0.167063   
N143     N      0.986050000000     0.187820000000     0.977170000000    -0.165686   
N144     N      0.987120000000     0.276590000000     0.996520000000    -0.17379    
N145     N      0.824610000000     0.845240000000     0.628010000000    -0.161991   
N146     N      0.887570000000     0.873660000000     0.584110000000    -0.165453   
N147     N      0.886450000000     0.874900000000     0.880580000000    -0.164916   
N148     N      0.824650000000     0.844910000000     0.835820000000    -0.161887   
N149     N      0.844080000000     0.136030000000     0.630000000000    -0.162705   
N150     N      0.875700000000     0.076860000000     0.584370000000    -0.165375   
N151     N      0.826530000000     0.122800000000     0.836950000000    -0.16235    
N152     N      0.887270000000     0.090360000000     0.881560000000    -0.164619   
N153     N      0.087240000000     0.088650000000     0.584810000000    -0.165322   
N154     N      0.150850000000     0.117400000000     0.628560000000    -0.16133    
N155     N      0.148460000000     0.120100000000     0.836590000000    -0.161849   
N156     N      0.086980000000     0.089150000000     0.881210000000    -0.164737   
N157     N      0.153270000000     0.845950000000     0.627640000000    -0.162015   
N158     N      0.089980000000     0.876400000000     0.584150000000    -0.164672   
N159     N      0.147230000000     0.842250000000     0.835490000000    -0.161873   
N160     N      0.086710000000     0.874410000000     0.880570000000    -0.164593   
O1       O      0.075080000000     0.890640000000     0.431980000000    -0.378826   
O2       O      0.898250000000     0.072750000000     0.432690000000    -0.377749   
O3       O      0.936100000000     0.929370000000     0.394490000000    -0.376933   
O4       O      0.037400000000     0.034540000000     0.394890000000    -0.375842   
O5       O      0.075280000000     0.072640000000     0.432520000000    -0.376598   
O6       O      0.898870000000     0.890420000000     0.431990000000    -0.378692   
O7       O      0.936460000000     0.035140000000     0.395000000000    -0.374811   
O8       O      0.037410000000     0.929210000000     0.394490000000    -0.376177   
O9       O      0.986570000000     0.044880000000     0.451580000000    -0.510513   
O10      O      0.986990000000     0.917700000000     0.450980000000    -0.509302   
O11      O      0.922440000000     0.981540000000     0.450880000000    -0.650234   
O12      O      0.051120000000     0.981980000000     0.451020000000    -0.648716   
O13      O      0.895040000000     0.068500000000     0.033330000000    -0.370334   
O14      O      0.075840000000     0.890990000000     0.032910000000    -0.366496   
O15      O      0.846860000000     0.943110000000     0.986320000000    -0.382738   
O16      O      0.024170000000     0.122160000000     0.480270000000    -0.378739   
O17      O      0.126460000000     0.020190000000     0.487320000000    -0.381574   
O18      O      0.949030000000     0.841200000000     0.984650000000    -0.381893   
O19      O      0.936910000000     0.928460000000     0.070590000000    -0.375851   
O20      O      0.037720000000     0.034030000000     0.071010000000    -0.377949   
O21      O      0.899140000000     0.890330000000     0.032940000000    -0.367503   
O22      O      0.074090000000     0.073640000000     0.033450000000    -0.369276   
O23      O      0.846580000000     0.019220000000     0.485780000000    -0.38033    
O24      O      0.025030000000     0.841260000000     0.984610000000    -0.381192   
O25      O      0.126670000000     0.944060000000     0.987040000000    -0.383403   
O26      O      0.948190000000     0.122000000000     0.481190000000    -0.379919   
O27      O      0.931960000000     0.029230000000     0.070810000000    -0.376919   
O28      O      0.039560000000     0.930420000000     0.070620000000    -0.374652   
O29      O      0.050400000000     0.981720000000     0.014150000000    -0.498066   
O30      O      0.923690000000     0.981250000000     0.014140000000    -0.497939   
O31      O      0.987080000000     0.918210000000     0.014050000000    -0.644258   
O32      O      0.986430000000     0.046010000000     0.014700000000    -0.641513   
O33      O      0.024970000000     0.341820000000     0.989270000000    -0.380058   
O34      O      0.846220000000     0.519370000000     0.485100000000    -0.381098   
O35      O      0.896760000000     0.396040000000     0.035220000000    -0.369202   
O36      O      0.897750000000     0.387280000000     0.434710000000    -0.379751   
O37      O      0.934130000000     0.424890000000     0.396140000000    -0.376338   
O38      O      0.935880000000     0.434520000000     0.072000000000    -0.374872   
O39      O      0.846450000000     0.443270000000     0.485830000000    -0.381144   
O40      O      0.948980000000     0.341740000000     0.490060000000    -0.379744   
O41      O      0.921680000000     0.480070000000     0.451020000000    -0.505532   
O42      O      0.987470000000     0.419050000000     0.015000000000    -0.497338   
O43      O      0.924060000000     0.482870000000     0.014230000000    -0.64557    
O44      O      0.985990000000     0.416590000000     0.452100000000    -0.652877   
O45      O      0.947850000000     0.621760000000     0.476760000000    -0.382222   
O46      O      0.126430000000     0.444070000000     0.976610000000    -0.381497   
O47      O      0.936950000000     0.536500000000     0.069660000000    -0.372935   
O48      O      0.931130000000     0.528120000000     0.393460000000    -0.376354   
O49      O      0.033710000000     0.423850000000     0.394840000000    -0.375691   
O50      O      0.041630000000     0.434050000000     0.070620000000    -0.375464   
O51      O      0.073410000000     0.577130000000     0.029730000000    -0.371403   
O52      O      0.076650000000     0.567290000000     0.429200000000    -0.373881   
O53      O      0.036060000000     0.540320000000     0.068190000000    -0.377846   
O54      O      0.037990000000     0.528470000000     0.392330000000    -0.374044   
O55      O      0.898340000000     0.573450000000     0.031820000000    -0.367784   
O56      O      0.080290000000     0.396460000000     0.033130000000    -0.371008   
O57      O      0.071440000000     0.386300000000     0.432830000000    -0.37717    
O58      O      0.892460000000     0.565860000000     0.430860000000    -0.375205   
O59      O      0.023840000000     0.621740000000     0.975340000000    -0.382783   
O60      O      0.126340000000     0.520190000000     0.976950000000    -0.382195   
O61      O      0.049130000000     0.480430000000     0.449970000000    -0.50732    
O62      O      0.986850000000     0.546550000000     0.012360000000    -0.496276   
O63      O      0.051670000000     0.483300000000     0.013220000000    -0.641948   
O64      O      0.985480000000     0.543970000000     0.449060000000    -0.653546   
O65      O      0.345800000000     0.943630000000     0.979640000000    -0.381802   
O66      O      0.523950000000     0.121510000000     0.475400000000    -0.379544   
O67      O      0.394970000000     0.069480000000     0.031210000000    -0.371411   
O68      O      0.395540000000     0.069740000000     0.430290000000    -0.375855   
O69      O      0.434130000000     0.032350000000     0.392710000000    -0.3777     
O70      O      0.433620000000     0.032010000000     0.068760000000    -0.374401   
O71      O      0.447970000000     0.121680000000     0.476790000000    -0.382072   
O72      O      0.345950000000     0.019730000000     0.478970000000    -0.380469   
O73      O      0.485770000000     0.044690000000     0.448750000000    -0.507481   
O74      O      0.422890000000     0.981940000000     0.012670000000    -0.498156   
O75      O      0.486430000000     0.046000000000     0.011970000000    -0.642096   
O76      O      0.422200000000     0.981060000000     0.449590000000    -0.655712   
O77      O      0.626390000000     0.019350000000     0.478390000000    -0.379507   
O78      O      0.448050000000     0.841380000000     0.977990000000    -0.383268   
O79      O      0.537890000000     0.035790000000     0.067890000000    -0.374745   
O80      O      0.538150000000     0.029600000000     0.391840000000    -0.380285   
O81      O      0.432840000000     0.929150000000     0.393530000000    -0.376884   
O82      O      0.434290000000     0.932300000000     0.069530000000    -0.374028   
O83      O      0.577790000000     0.893800000000     0.031570000000    -0.372284   
O84      O      0.571930000000     0.888020000000     0.430940000000    -0.374221   
O85      O      0.539740000000     0.931880000000     0.069100000000    -0.376037   
O86      O      0.532860000000     0.924690000000     0.393260000000    -0.376551   
O87      O      0.575080000000     0.073800000000     0.029870000000    -0.371409   
O88      O      0.395320000000     0.894430000000     0.032340000000    -0.372932   
O89      O      0.394700000000     0.892080000000     0.431490000000    -0.37417    
O90      O      0.576290000000     0.068250000000     0.429040000000    -0.3758     
O91      O      0.626280000000     0.943220000000     0.977880000000    -0.383243   
O92      O      0.524040000000     0.841340000000     0.978370000000    -0.382127   
O93      O      0.485700000000     0.917700000000     0.450070000000    -0.508222   
O94      O      0.550550000000     0.982000000000     0.012180000000    -0.499358   
O95      O      0.486310000000     0.917430000000     0.013110000000    -0.641262   
O96      O      0.549370000000     0.980680000000     0.448880000000    -0.653941   
O97      O      0.346660000000     0.519720000000     0.985320000000    -0.3824     
O98      O      0.524450000000     0.340840000000     0.485190000000    -0.381175   
O99      O      0.398390000000     0.389890000000     0.432270000000    -0.379293   
O100     O      0.394430000000     0.395250000000     0.032900000000    -0.369956   
O101     O      0.432500000000     0.433200000000     0.070510000000    -0.37648    
O102     O      0.436220000000     0.427950000000     0.394610000000    -0.377221   
O103     O      0.448500000000     0.341180000000     0.486820000000    -0.380127   
O104     O      0.346430000000     0.443620000000     0.483730000000    -0.378892   
O105     O      0.486710000000     0.417600000000     0.014130000000    -0.497863   
O106     O      0.422510000000     0.481370000000     0.451000000000    -0.509959   
O107     O      0.486480000000     0.417040000000     0.450820000000    -0.652121   
O108     O      0.423890000000     0.481680000000     0.014060000000    -0.644254   
O109     O      0.626480000000     0.442860000000     0.478710000000    -0.380664   
O110     O      0.448830000000     0.621580000000     0.985200000000    -0.383796   
O111     O      0.539270000000     0.431620000000     0.394300000000    -0.374591   
O112     O      0.537300000000     0.427620000000     0.070300000000    -0.378576   
O113     O      0.437990000000     0.534960000000     0.070640000000    -0.373218   
O114     O      0.431550000000     0.529830000000     0.394650000000    -0.379517   
O115     O      0.578240000000     0.568580000000     0.431910000000    -0.377345   
O116     O      0.576120000000     0.571970000000     0.032400000000    -0.370409   
O117     O      0.540340000000     0.530330000000     0.394390000000    -0.375804   
O118     O      0.538280000000     0.534310000000     0.070230000000    -0.376074   
O119     O      0.576490000000     0.392530000000     0.431740000000    -0.375798   
O120     O      0.393960000000     0.568020000000     0.432340000000    -0.380338   
O121     O      0.400070000000     0.573180000000     0.033100000000    -0.366202   
O122     O      0.575470000000     0.390130000000     0.032550000000    -0.371605   
O123     O      0.626580000000     0.518980000000     0.978630000000    -0.381311   
O124     O      0.524810000000     0.621510000000     0.985140000000    -0.382863   
O125     O      0.487050000000     0.544570000000     0.013760000000    -0.499953   
O126     O      0.549140000000     0.481090000000     0.451200000000    -0.511962   
O127     O      0.486580000000     0.546010000000     0.450390000000    -0.649485   
O128     O      0.551550000000     0.481200000000     0.014120000000    -0.640409   
O129     O      0.146240000000     0.314900000000     0.284410000000    -0.36244    
O130     O      0.186260000000     0.276730000000     0.320930000000    -0.352283   
O131     O      0.161360000000     0.132030000000     0.180220000000    -0.359282   
O132     O      0.194020000000     0.176680000000     0.143690000000    -0.352744   
O133     O      0.159090000000     0.134330000000     0.284910000000    -0.361652   
O134     O      0.193380000000     0.178040000000     0.321250000000    -0.35425    
O135     O      0.143990000000     0.312800000000     0.180110000000    -0.365084   
O136     O      0.184590000000     0.275370000000     0.143560000000    -0.353002   
O137     O      0.089510000000     0.272490000000     0.233190000000    -0.337546   
O138     O      0.149480000000     0.369450000000     0.231850000000    -0.513573   
O139     O      0.098760000000     0.163950000000     0.231740000000    -0.511767   
O140     O      0.172760000000     0.078330000000     0.233360000000    -0.330391   
O141     O      0.166540000000     0.224890000000     0.263710000000    -0.459452   
O142     O      0.166800000000     0.224620000000     0.201340000000    -0.608593   
O143     O      0.320270000000     0.322710000000     0.180150000000    -0.363627   
O144     O      0.284920000000     0.280220000000     0.143640000000    -0.353088   
O145     O      0.334870000000     0.153890000000     0.284380000000    -0.36458    
O146     O      0.292890000000     0.189700000000     0.320930000000    -0.354445   
O147     O      0.331110000000     0.149330000000     0.179670000000    -0.355669   
O148     O      0.290270000000     0.186880000000     0.143310000000    -0.350282   
O149     O      0.315880000000     0.327100000000     0.284550000000    -0.364484   
O150     O      0.281650000000     0.283630000000     0.321040000000    -0.351128   
O151     O      0.376430000000     0.298800000000     0.233910000000    -0.5139     
O152     O      0.299780000000     0.382620000000     0.231000000000    -0.331674   
O153     O      0.386730000000     0.180960000000     0.229920000000    -0.340428   
O154     O      0.320460000000     0.090200000000     0.233780000000    -0.515552   
O155     O      0.307870000000     0.235850000000     0.201510000000    -0.612549   
O156     O      0.308430000000     0.236080000000     0.263350000000    -0.468985   
O157     O      0.231780000000     0.302910000000     0.198700000000    -0.475925   
O158     O      0.243450000000     0.158560000000     0.265540000000    -0.623612   
O159     O      0.231870000000     0.302400000000     0.265040000000    -0.624747   
O160     O      0.243100000000     0.158060000000     0.198900000000    -0.474629   
O161     O      0.158550000000     0.828130000000     0.283790000000    -0.360227   
O162     O      0.192290000000     0.784330000000     0.320330000000    -0.353165   
O163     O      0.149490000000     0.645950000000     0.178360000000    -0.359473   
O164     O      0.188650000000     0.685680000000     0.142210000000    -0.353145   
O165     O      0.140710000000     0.651190000000     0.282680000000    -0.359996   
O166     O      0.182100000000     0.686890000000     0.319660000000    -0.352437   
O167     O      0.163090000000     0.830920000000     0.179250000000    -0.363672   
O168     O      0.195570000000     0.785950000000     0.142850000000    -0.353562   
O169     O      0.098870000000     0.798800000000     0.229820000000    -0.339474   
O170     O      0.174700000000     0.883630000000     0.232620000000    -0.513678   
O171     O      0.089600000000     0.689780000000     0.227680000000    -0.512173   
O172     O      0.147470000000     0.592860000000     0.232170000000    -0.328984   
O173     O      0.166070000000     0.737910000000     0.262410000000    -0.46089    
O174     O      0.167390000000     0.738270000000     0.200030000000    -0.607201   
O175     O      0.332640000000     0.812900000000     0.180150000000    -0.360718   
O176     O      0.292750000000     0.775030000000     0.143450000000    -0.353225   
O177     O      0.321600000000     0.641600000000     0.284220000000    -0.36412    
O178     O      0.284060000000     0.682070000000     0.320750000000    -0.353525   
O179     O      0.314000000000     0.633340000000     0.179660000000    -0.354778   
O180     O      0.282220000000     0.678520000000     0.143100000000    -0.350294   
O181     O      0.333450000000     0.808270000000     0.284850000000    -0.362808   
O182     O      0.290560000000     0.772740000000     0.321040000000    -0.350957   
O183     O      0.386190000000     0.775740000000     0.231680000000    -0.51442    
O184     O      0.324410000000     0.870940000000     0.233780000000    -0.3318     
O185     O      0.376080000000     0.657630000000     0.228630000000    -0.341115   
O186     O      0.295860000000     0.579290000000     0.234770000000    -0.515718   
O187     O      0.308580000000     0.725050000000     0.201240000000    -0.611528   
O188     O      0.307470000000     0.724840000000     0.263150000000    -0.468537   
O189     O      0.244700000000     0.804030000000     0.198510000000    -0.475756   
O190     O      0.230390000000     0.659270000000     0.264670000000    -0.622672   
O191     O      0.243760000000     0.803160000000     0.264980000000    -0.622382   
O192     O      0.231410000000     0.659670000000     0.198110000000    -0.47485    
O193     O      0.817600000000     0.138380000000     0.285420000000    -0.364372   
O194     O      0.779750000000     0.179400000000     0.321550000000    -0.353369   
O195     O      0.827730000000     0.318390000000     0.182730000000    -0.360533   
O196     O      0.790810000000     0.278880000000     0.145330000000    -0.351358   
O197     O      0.818590000000     0.320640000000     0.286970000000    -0.364946   
O198     O      0.779940000000     0.279430000000     0.322560000000    -0.353818   
O199     O      0.825340000000     0.143680000000     0.181230000000    -0.364102   
O200     O      0.789520000000     0.185220000000     0.144390000000    -0.352602   
O201     O      0.879220000000     0.173460000000     0.236210000000    -0.336256   
O202     O      0.808480000000     0.084140000000     0.231950000000    -0.515226   
O203     O      0.880000000000     0.284710000000     0.237620000000    -0.510459   
O204     O      0.813320000000     0.376690000000     0.234070000000    -0.329668   
O205     O      0.805820000000     0.229620000000     0.265140000000    -0.460349   
O206     O      0.807690000000     0.230600000000     0.203110000000    -0.6093     
O207     O      0.655390000000     0.139390000000     0.177670000000    -0.361392   
O208     O      0.692340000000     0.182050000000     0.142010000000    -0.35195    
O209     O      0.643910000000     0.315710000000     0.283320000000    -0.364165   
O210     O      0.681430000000     0.275850000000     0.320220000000    -0.351921   
O211     O      0.657290000000     0.326210000000     0.179110000000    -0.356753   
O212     O      0.693430000000     0.283790000000     0.142920000000    -0.353948   
O213     O      0.641500000000     0.147580000000     0.281870000000    -0.360656   
O214     O      0.680060000000     0.185360000000     0.319300000000    -0.353748   
O215     O      0.591520000000     0.176380000000     0.225030000000    -0.514231   
O216     O      0.658440000000     0.085730000000     0.232310000000    -0.33153    
O217     O      0.592320000000     0.290430000000     0.225580000000    -0.343545   
O218     O      0.662760000000     0.377880000000     0.234530000000    -0.513719   
O219     O      0.666160000000     0.232660000000     0.199490000000    -0.610643   
O220     O      0.663730000000     0.231690000000     0.261720000000    -0.468993   
O221     O      0.736330000000     0.159150000000     0.198300000000    -0.475657   
O222     O      0.735040000000     0.302840000000     0.265830000000    -0.624174   
O223     O      0.733040000000     0.158470000000     0.264770000000    -0.623409   
O224     O      0.738380000000     0.304180000000     0.199440000000    -0.475275   
O225     O      0.815770000000     0.829030000000     0.284170000000    -0.363329   
O226     O      0.780210000000     0.786590000000     0.320620000000    -0.351442   
O227     O      0.639700000000     0.809640000000     0.178960000000    -0.35759    
O228     O      0.683670000000     0.775890000000     0.142580000000    -0.350899   
O229     O      0.647810000000     0.818270000000     0.283500000000    -0.359444   
O230     O      0.688940000000     0.781860000000     0.320230000000    -0.352112   
O231     O      0.816900000000     0.828130000000     0.179430000000    -0.358094   
O232     O      0.779430000000     0.787450000000     0.142930000000    -0.35317    
O233     O      0.784960000000     0.882600000000     0.230890000000    -0.345171   
O234     O      0.876860000000     0.817440000000     0.232280000000    -0.514838   
O235     O      0.663040000000     0.871580000000     0.228120000000    -0.510732   
O236     O      0.585020000000     0.791870000000     0.234110000000    -0.337852   
O237     O      0.731340000000     0.803740000000     0.262510000000    -0.467708   
O238     O      0.731470000000     0.803620000000     0.200670000000    -0.612441   
O239     O      0.836720000000     0.658350000000     0.179350000000    -0.359223   
O240     O      0.792100000000     0.691070000000     0.142860000000    -0.352136   
O241     O      0.651900000000     0.642230000000     0.283690000000    -0.362555   
O242     O      0.689710000000     0.682540000000     0.320250000000    -0.352887   
O243     O      0.657180000000     0.638030000000     0.179500000000    -0.36518    
O244     O      0.694920000000     0.678390000000     0.142960000000    -0.353228   
O245     O      0.832630000000     0.652890000000     0.283940000000    -0.36007    
O246     O      0.788880000000     0.686800000000     0.320410000000    -0.352434   
O247     O      0.804760000000     0.594350000000     0.229770000000    -0.512294   
O248     O      0.889590000000     0.669230000000     0.233120000000    -0.329158   
O249     O      0.695810000000     0.584690000000     0.233720000000    -0.337897   
O250     O      0.598910000000     0.644330000000     0.230560000000    -0.513113   
O251     O      0.743450000000     0.662320000000     0.200720000000    -0.608009   
O252     O      0.743320000000     0.661910000000     0.263000000000    -0.459724   
O253     O      0.809590000000     0.739120000000     0.198250000000    -0.474794   
O254     O      0.665450000000     0.727440000000     0.264600000000    -0.622652   
O255     O      0.809220000000     0.739030000000     0.264850000000    -0.62353    
O256     O      0.665140000000     0.726720000000     0.198040000000    -0.476776   
O257     O      0.075080000000     0.890640000000     0.931980000000    -0.377451   
O258     O      0.898250000000     0.072750000000     0.932690000000    -0.376431   
O259     O      0.936100000000     0.929370000000     0.894480000000    -0.376382   
O260     O      0.037400000000     0.034540000000     0.894890000000    -0.375362   
O261     O      0.075280000000     0.072640000000     0.932520000000    -0.375422   
O262     O      0.898870000000     0.890420000000     0.931990000000    -0.377378   
O263     O      0.936460000000     0.035140000000     0.895000000000    -0.374316   
O264     O      0.037410000000     0.929210000000     0.894490000000    -0.375692   
O265     O      0.986570000000     0.044880000000     0.951580000000    -0.508647   
O266     O      0.986990000000     0.917700000000     0.950980000000    -0.507386   
O267     O      0.922440000000     0.981540000000     0.950880000000    -0.64849    
O268     O      0.051120000000     0.981980000000     0.951020000000    -0.646951   
O269     O      0.895040000000     0.068500000000     0.533330000000    -0.377424   
O270     O      0.075840000000     0.890990000000     0.532910000000    -0.373604   
O271     O      0.846860000000     0.943110000000     0.486320000000    -0.381325   
O272     O      0.024170000000     0.122160000000     0.980270000000    -0.380118   
O273     O      0.126460000000     0.020190000000     0.987320000000    -0.382965   
O274     O      0.949030000000     0.841200000000     0.484650000000    -0.380514   
O275     O      0.936910000000     0.928460000000     0.570590000000    -0.376632   
O276     O      0.037720000000     0.034030000000     0.571010000000    -0.378742   
O277     O      0.899140000000     0.890330000000     0.532940000000    -0.37468    
O278     O      0.074090000000     0.073640000000     0.533450000000    -0.37636    
O279     O      0.846580000000     0.019220000000     0.985780000000    -0.381677   
O280     O      0.025030000000     0.841260000000     0.484610000000    -0.379755   
O281     O      0.126670000000     0.944060000000     0.487040000000    -0.382025   
O282     O      0.948190000000     0.122000000000     0.981190000000    -0.381248   
O283     O      0.931960000000     0.029230000000     0.570810000000    -0.377681   
O284     O      0.039560000000     0.930420000000     0.570620000000    -0.375436   
O285     O      0.050400000000     0.981720000000     0.514150000000    -0.508531   
O286     O      0.923690000000     0.981250000000     0.514150000000    -0.508303   
O287     O      0.987080000000     0.918210000000     0.514050000000    -0.65379    
O288     O      0.986430000000     0.046010000000     0.514700000000    -0.651024   
O289     O      0.024970000000     0.341820000000     0.489270000000    -0.378101   
O290     O      0.846220000000     0.519370000000     0.985100000000    -0.382468   
O291     O      0.896760000000     0.396040000000     0.535220000000    -0.376382   
O292     O      0.897750000000     0.387280000000     0.934710000000    -0.378509   
O293     O      0.934130000000     0.424890000000     0.896140000000    -0.375881   
O294     O      0.935880000000     0.434520000000     0.572000000000    -0.375649   
O295     O      0.846450000000     0.443270000000     0.985830000000    -0.382481   
O296     O      0.948980000000     0.341740000000     0.990060000000    -0.382234   
O297     O      0.921680000000     0.480070000000     0.951030000000    -0.503756   
O298     O      0.987470000000     0.419050000000     0.515010000000    -0.50776    
O299     O      0.924060000000     0.482870000000     0.514230000000    -0.655245   
O300     O      0.985990000000     0.416590000000     0.952100000000    -0.651136   
O301     O      0.947850000000     0.621760000000     0.976760000000    -0.383738   
O302     O      0.126430000000     0.444070000000     0.476600000000    -0.380066   
O303     O      0.936950000000     0.536500000000     0.569660000000    -0.373665   
O304     O      0.931130000000     0.528120000000     0.893460000000    -0.375896   
O305     O      0.033710000000     0.423850000000     0.894840000000    -0.375283   
O306     O      0.041630000000     0.434050000000     0.570620000000    -0.376252   
O307     O      0.073410000000     0.577130000000     0.529730000000    -0.378351   
O308     O      0.076650000000     0.567290000000     0.929200000000    -0.372545   
O309     O      0.036060000000     0.540320000000     0.568190000000    -0.378576   
O310     O      0.037990000000     0.528470000000     0.892330000000    -0.37356    
O311     O      0.898340000000     0.573450000000     0.531820000000    -0.374849   
O312     O      0.080290000000     0.396460000000     0.533130000000    -0.378089   
O313     O      0.071440000000     0.386300000000     0.932820000000    -0.375994   
O314     O      0.892460000000     0.565860000000     0.930860000000    -0.37398    
O315     O      0.023840000000     0.621740000000     0.475340000000    -0.381335   
O316     O      0.126340000000     0.520190000000     0.476960000000    -0.380681   
O317     O      0.049130000000     0.480430000000     0.949970000000    -0.505449   
O318     O      0.986850000000     0.546550000000     0.512360000000    -0.5065     
O319     O      0.051670000000     0.483300000000     0.513220000000    -0.651482   
O320     O      0.985480000000     0.543970000000     0.949060000000    -0.651864   
O321     O      0.345800000000     0.943630000000     0.479640000000    -0.380276   
O322     O      0.523950000000     0.121510000000     0.975400000000    -0.38096    
O323     O      0.394970000000     0.069480000000     0.531210000000    -0.378282   
O324     O      0.395540000000     0.069740000000     0.930290000000    -0.374584   
O325     O      0.434130000000     0.032350000000     0.892710000000    -0.377241   
O326     O      0.433620000000     0.032010000000     0.568760000000    -0.375085   
O327     O      0.447970000000     0.121680000000     0.976800000000    -0.38354    
O328     O      0.345950000000     0.019730000000     0.978970000000    -0.381956   
O329     O      0.485770000000     0.044690000000     0.948740000000    -0.50544    
O330     O      0.422890000000     0.981940000000     0.512670000000    -0.508356   
O331     O      0.486430000000     0.046000000000     0.511970000000    -0.651595   
O332     O      0.422200000000     0.981060000000     0.949590000000    -0.653664   
O333     O      0.626390000000     0.019350000000     0.978390000000    -0.381069   
O334     O      0.448050000000     0.841380000000     0.477990000000    -0.381853   
O335     O      0.537890000000     0.035790000000     0.567890000000    -0.375491   
O336     O      0.538150000000     0.029600000000     0.891840000000    -0.379827   
O337     O      0.432840000000     0.929150000000     0.893530000000    -0.37648    
O338     O      0.434290000000     0.932300000000     0.569530000000    -0.374751   
O339     O      0.577790000000     0.893800000000     0.531570000000    -0.379226   
O340     O      0.571930000000     0.888020000000     0.930950000000    -0.372828   
O341     O      0.539740000000     0.931880000000     0.569100000000    -0.376782   
O342     O      0.532860000000     0.924690000000     0.893260000000    -0.376065   
O343     O      0.575080000000     0.073800000000     0.529870000000    -0.378412   
O344     O      0.395320000000     0.894430000000     0.532340000000    -0.37987    
O345     O      0.394700000000     0.892080000000     0.931490000000    -0.372904   
O346     O      0.576290000000     0.068250000000     0.929040000000    -0.374467   
O347     O      0.626280000000     0.943220000000     0.477890000000    -0.381781   
O348     O      0.524040000000     0.841340000000     0.478370000000    -0.380614   
O349     O      0.485700000000     0.917700000000     0.950070000000    -0.506283   
O350     O      0.550550000000     0.982000000000     0.512180000000    -0.509653   
O351     O      0.486310000000     0.917430000000     0.513110000000    -0.650823   
O352     O      0.549370000000     0.980680000000     0.948880000000    -0.652105   
O353     O      0.346660000000     0.519720000000     0.485320000000    -0.380958   
O354     O      0.524450000000     0.340840000000     0.985190000000    -0.382491   
O355     O      0.398390000000     0.389890000000     0.932270000000    -0.378004   
O356     O      0.394430000000     0.395250000000     0.532900000000    -0.377143   
O357     O      0.432500000000     0.433200000000     0.570510000000    -0.377258   
O358     O      0.436220000000     0.427950000000     0.894610000000    -0.376759   
O359     O      0.448500000000     0.341180000000     0.986820000000    -0.381594   
O360     O      0.346430000000     0.443620000000     0.983740000000    -0.380221   
O361     O      0.486710000000     0.417600000000     0.514130000000    -0.508304   
O362     O      0.422510000000     0.481370000000     0.951000000000    -0.508068   
O363     O      0.486480000000     0.417040000000     0.950820000000    -0.650365   
O364     O      0.423890000000     0.481680000000     0.514060000000    -0.653838   
O365     O      0.626480000000     0.442860000000     0.978710000000    -0.38216    
O366     O      0.448830000000     0.621580000000     0.485200000000    -0.382453   
O367     O      0.539270000000     0.431620000000     0.894300000000    -0.374131   
O368     O      0.537300000000     0.427620000000     0.570300000000    -0.379365   
O369     O      0.437990000000     0.534960000000     0.570640000000    -0.373979   
O370     O      0.431550000000     0.529830000000     0.894650000000    -0.378979   
O371     O      0.578240000000     0.568580000000     0.931910000000    -0.376024   
O372     O      0.576120000000     0.571970000000     0.532400000000    -0.377496   
O373     O      0.540340000000     0.530330000000     0.894390000000    -0.375324   
O374     O      0.538280000000     0.534310000000     0.570230000000    -0.37685    
O375     O      0.576490000000     0.392530000000     0.931740000000    -0.374499   
O376     O      0.393960000000     0.568020000000     0.932350000000    -0.378923   
O377     O      0.400070000000     0.573180000000     0.533100000000    -0.373342   
O378     O      0.575470000000     0.390130000000     0.532550000000    -0.378698   
O379     O      0.626580000000     0.518980000000     0.478630000000    -0.379806   
O380     O      0.524810000000     0.621510000000     0.485140000000    -0.381489   
O381     O      0.487050000000     0.544570000000     0.513750000000    -0.510423   
O382     O      0.549140000000     0.481090000000     0.951200000000    -0.5101     
O383     O      0.486580000000     0.546010000000     0.950380000000    -0.647833   
O384     O      0.551550000000     0.481200000000     0.514120000000    -0.649923   
O385     O      0.146240000000     0.314900000000     0.784410000000    -0.362259   
O386     O      0.186260000000     0.276730000000     0.820930000000    -0.352307   
O387     O      0.161360000000     0.132030000000     0.680220000000    -0.359374   
O388     O      0.194020000000     0.176680000000     0.643690000000    -0.352929   
O389     O      0.159090000000     0.134330000000     0.784910000000    -0.361713   
O390     O      0.193380000000     0.178040000000     0.821250000000    -0.354267   
O391     O      0.143990000000     0.312800000000     0.680110000000    -0.365068   
O392     O      0.184590000000     0.275370000000     0.643560000000    -0.3532     
O393     O      0.089510000000     0.272490000000     0.733200000000    -0.337446   
O394     O      0.149480000000     0.369450000000     0.731850000000    -0.513569   
O395     O      0.098760000000     0.163950000000     0.731740000000    -0.511748   
O396     O      0.172760000000     0.078330000000     0.733360000000    -0.330295   
O397     O      0.166540000000     0.224890000000     0.763710000000    -0.45942    
O398     O      0.166800000000     0.224620000000     0.701340000000    -0.608577   
O399     O      0.320270000000     0.322710000000     0.680150000000    -0.363597   
O400     O      0.284920000000     0.280220000000     0.643640000000    -0.35327    
O401     O      0.334870000000     0.153890000000     0.784370000000    -0.364541   
O402     O      0.292890000000     0.189700000000     0.820930000000    -0.354378   
O403     O      0.331110000000     0.149330000000     0.679670000000    -0.355641   
O404     O      0.290270000000     0.186880000000     0.643310000000    -0.350461   
O405     O      0.315880000000     0.327100000000     0.784550000000    -0.364423   
O406     O      0.281650000000     0.283630000000     0.821040000000    -0.351141   
O407     O      0.376430000000     0.298800000000     0.733910000000    -0.514128   
O408     O      0.299780000000     0.382620000000     0.731000000000    -0.331553   
O409     O      0.386730000000     0.180960000000     0.729920000000    -0.340357   
O410     O      0.320460000000     0.090200000000     0.733780000000    -0.515537   
O411     O      0.307870000000     0.235850000000     0.701510000000    -0.612547   
O412     O      0.308430000000     0.236080000000     0.763360000000    -0.468901   
O413     O      0.231780000000     0.302910000000     0.698700000000    -0.475901   
O414     O      0.243450000000     0.158560000000     0.765540000000    -0.623618   
O415     O      0.231870000000     0.302400000000     0.765040000000    -0.624746   
O416     O      0.243100000000     0.158060000000     0.698900000000    -0.474612   
O417     O      0.158550000000     0.828130000000     0.783790000000    -0.360188   
O418     O      0.192290000000     0.784330000000     0.820330000000    -0.353186   
O419     O      0.149490000000     0.645950000000     0.678360000000    -0.359443   
O420     O      0.188650000000     0.685680000000     0.642210000000    -0.353329   
O421     O      0.140710000000     0.651190000000     0.782680000000    -0.359942   
O422     O      0.182100000000     0.686890000000     0.819660000000    -0.352456   
O423     O      0.163090000000     0.830920000000     0.679250000000    -0.363633   
O424     O      0.195570000000     0.785950000000     0.642850000000    -0.353749   
O425     O      0.098870000000     0.798800000000     0.729820000000    -0.339408   
O426     O      0.174700000000     0.883630000000     0.732610000000    -0.513664   
O427     O      0.089600000000     0.689780000000     0.727680000000    -0.512155   
O428     O      0.147470000000     0.592860000000     0.732170000000    -0.328874   
O429     O      0.166070000000     0.737910000000     0.762410000000    -0.460859   
O430     O      0.167390000000     0.738270000000     0.700030000000    -0.607183   
O431     O      0.332640000000     0.812900000000     0.680150000000    -0.360689   
O432     O      0.292750000000     0.775030000000     0.643450000000    -0.353406   
O433     O      0.321600000000     0.641600000000     0.784220000000    -0.363961   
O434     O      0.284060000000     0.682070000000     0.820750000000    -0.35355    
O435     O      0.314000000000     0.633340000000     0.679660000000    -0.354735   
O436     O      0.282220000000     0.678520000000     0.643100000000    -0.350468   
O437     O      0.333450000000     0.808270000000     0.784850000000    -0.362769   
O438     O      0.290560000000     0.772740000000     0.821040000000    -0.350998   
O439     O      0.386190000000     0.775740000000     0.731680000000    -0.5144     
O440     O      0.324410000000     0.870940000000     0.733780000000    -0.331701   
O441     O      0.376080000000     0.657630000000     0.728630000000    -0.341042   
O442     O      0.295860000000     0.579290000000     0.734760000000    -0.515696   
O443     O      0.308580000000     0.725050000000     0.701240000000    -0.61151    
O444     O      0.307470000000     0.724840000000     0.763150000000    -0.468509   
O445     O      0.244700000000     0.804030000000     0.698510000000    -0.475732   
O446     O      0.230390000000     0.659270000000     0.764670000000    -0.622673   
O447     O      0.243760000000     0.803160000000     0.764980000000    -0.622385   
O448     O      0.231410000000     0.659670000000     0.698110000000    -0.474822   
O449     O      0.817600000000     0.138380000000     0.785420000000    -0.364316   
O450     O      0.779750000000     0.179400000000     0.821550000000    -0.35339    
O451     O      0.827730000000     0.318390000000     0.682730000000    -0.360505   
O452     O      0.790810000000     0.278880000000     0.645330000000    -0.351539   
O453     O      0.818590000000     0.320640000000     0.786970000000    -0.364892   
O454     O      0.779940000000     0.279430000000     0.822560000000    -0.35384    
O455     O      0.825340000000     0.143680000000     0.681230000000    -0.364079   
O456     O      0.789520000000     0.185220000000     0.644390000000    -0.352786   
O457     O      0.879220000000     0.173460000000     0.736210000000    -0.336194   
O458     O      0.808480000000     0.084140000000     0.731950000000    -0.515221   
O459     O      0.880000000000     0.284710000000     0.737620000000    -0.510438   
O460     O      0.813320000000     0.376690000000     0.734070000000    -0.329577   
O461     O      0.805820000000     0.229620000000     0.765140000000    -0.460319   
O462     O      0.807690000000     0.230600000000     0.703110000000    -0.60928    
O463     O      0.655390000000     0.139390000000     0.677670000000    -0.361291   
O464     O      0.692340000000     0.182050000000     0.642010000000    -0.352143   
O465     O      0.643910000000     0.315710000000     0.783320000000    -0.36411    
O466     O      0.681430000000     0.275850000000     0.820220000000    -0.351936   
O467     O      0.657290000000     0.326210000000     0.679110000000    -0.356845   
O468     O      0.693430000000     0.283790000000     0.642920000000    -0.354148   
O469     O      0.641500000000     0.147580000000     0.781870000000    -0.360685   
O470     O      0.680060000000     0.185360000000     0.819300000000    -0.353795   
O471     O      0.591520000000     0.176380000000     0.725030000000    -0.514193   
O472     O      0.658440000000     0.085730000000     0.732310000000    -0.331436   
O473     O      0.592320000000     0.290430000000     0.725580000000    -0.343476   
O474     O      0.662760000000     0.377880000000     0.734530000000    -0.513709   
O475     O      0.666160000000     0.232660000000     0.699490000000    -0.610418   
O476     O      0.663730000000     0.231690000000     0.761720000000    -0.469009   
O477     O      0.736330000000     0.159150000000     0.698300000000    -0.475596   
O478     O      0.735040000000     0.302840000000     0.765830000000    -0.624175   
O479     O      0.733040000000     0.158470000000     0.764770000000    -0.62346    
O480     O      0.738380000000     0.304180000000     0.699440000000    -0.47526    
O481     O      0.815770000000     0.829030000000     0.784170000000    -0.363267   
O482     O      0.780210000000     0.786590000000     0.820620000000    -0.351455   
O483     O      0.639700000000     0.809640000000     0.678960000000    -0.357571   
O484     O      0.683670000000     0.775890000000     0.642580000000    -0.351085   
O485     O      0.647810000000     0.818270000000     0.783500000000    -0.359373   
O486     O      0.688940000000     0.781860000000     0.820230000000    -0.352124   
O487     O      0.816900000000     0.828130000000     0.679430000000    -0.357946   
O488     O      0.779430000000     0.787450000000     0.642930000000    -0.353353   
O489     O      0.784960000000     0.882600000000     0.730890000000    -0.345102   
O490     O      0.876860000000     0.817440000000     0.732280000000    -0.514827   
O491     O      0.663040000000     0.871580000000     0.728130000000    -0.510701   
O492     O      0.585020000000     0.791870000000     0.734110000000    -0.337756   
O493     O      0.731340000000     0.803740000000     0.762520000000    -0.467614   
O494     O      0.731470000000     0.803620000000     0.700670000000    -0.612435   
O495     O      0.836720000000     0.658350000000     0.679350000000    -0.359194   
O496     O      0.792100000000     0.691070000000     0.642860000000    -0.352319   
O497     O      0.651900000000     0.642230000000     0.783690000000    -0.362507   
O498     O      0.689710000000     0.682540000000     0.820250000000    -0.352909   
O499     O      0.657180000000     0.638030000000     0.679500000000    -0.365151   
O500     O      0.694920000000     0.678390000000     0.642960000000    -0.353417   
O501     O      0.832630000000     0.652890000000     0.783940000000    -0.360015   
O502     O      0.788880000000     0.686800000000     0.820410000000    -0.352456   
O503     O      0.804760000000     0.594350000000     0.729770000000    -0.512274   
O504     O      0.889590000000     0.669230000000     0.733120000000    -0.329064   
O505     O      0.695810000000     0.584690000000     0.733710000000    -0.337875   
O506     O      0.598910000000     0.644330000000     0.730560000000    -0.513108   
O507     O      0.743450000000     0.662320000000     0.700720000000    -0.60799    
O508     O      0.743320000000     0.661910000000     0.763000000000    -0.459698   
O509     O      0.809590000000     0.739120000000     0.698250000000    -0.474767   
O510     O      0.665450000000     0.727440000000     0.764600000000    -0.622653   
O511     O      0.809220000000     0.739030000000     0.764850000000    -0.623529   
O512     O      0.665140000000     0.726720000000     0.698040000000    -0.476756   
Zr1      Zr     0.986810000000     0.981700000000     0.419920000000     1.41763    
Zr2      Zr     0.923240000000     0.044790000000     0.482890000000     1.43136    
Zr3      Zr     0.050310000000     0.918280000000     0.982570000000     1.41099    
Zr4      Zr     0.923680000000     0.918010000000     0.982540000000     1.41308    
Zr5      Zr     0.049840000000     0.045410000000     0.482970000000     1.42888    
Zr6      Zr     0.987090000000     0.981610000000     0.045600000000     1.42727    
Zr7      Zr     0.923370000000     0.418150000000     0.484140000000     1.43337    
Zr8      Zr     0.922850000000     0.544850000000     0.481400000000     1.42965    
Zr9      Zr     0.050150000000     0.418420000000     0.982820000000     1.4101     
Zr10     Zr     0.988170000000     0.483970000000     0.044980000000     1.42241    
Zr11     Zr     0.985020000000     0.478980000000     0.419190000000     1.42022    
Zr12     Zr     0.049450000000     0.545210000000     0.980140000000     1.40993    
Zr13     Zr     0.422790000000     0.044860000000     0.480670000000     1.43273    
Zr14     Zr     0.549480000000     0.044800000000     0.479910000000     1.42807    
Zr15     Zr     0.422580000000     0.918120000000     0.981570000000     1.41354    
Zr16     Zr     0.486970000000     0.982270000000     0.043620000000     1.41726    
Zr17     Zr     0.485350000000     0.980420000000     0.418010000000     1.43122    
Zr18     Zr     0.549420000000     0.918040000000     0.981140000000     1.41124    
Zr19     Zr     0.423320000000     0.418050000000     0.482620000000     1.43206    
Zr20     Zr     0.549810000000     0.417660000000     0.482410000000     1.4318     
Zr21     Zr     0.423570000000     0.544850000000     0.982530000000     1.41326    
Zr22     Zr     0.486120000000     0.481280000000     0.419670000000     1.42195    
Zr23     Zr     0.487540000000     0.481380000000     0.045370000000     1.42546    
Zr24     Zr     0.550040000000     0.544620000000     0.982240000000     1.4128     
Zr25     Zr     0.168410000000     0.291300000000     0.232200000000     1.29255    
Zr26     Zr     0.178960000000     0.159300000000     0.232500000000     1.29482    
Zr27     Zr     0.296130000000     0.301510000000     0.232230000000     1.29825    
Zr28     Zr     0.306460000000     0.169330000000     0.232210000000     1.29672    
Zr29     Zr     0.237650000000     0.230710000000     0.291030000000     1.26527    
Zr30     Zr     0.237360000000     0.230420000000     0.173540000000     1.26099    
Zr31     Zr     0.179840000000     0.803390000000     0.231490000000     1.28993    
Zr32     Zr     0.167690000000     0.671490000000     0.230920000000     1.29535    
Zr33     Zr     0.307380000000     0.791570000000     0.232240000000     1.29629    
Zr34     Zr     0.295080000000     0.659580000000     0.231920000000     1.29656    
Zr35     Zr     0.236440000000     0.731160000000     0.290460000000     1.26306    
Zr36     Zr     0.238540000000     0.731940000000     0.172950000000     1.26111    
Zr37     Zr     0.798770000000     0.163950000000     0.233190000000     1.29449    
Zr38     Zr     0.800660000000     0.296480000000     0.234240000000     1.29949    
Zr39     Zr     0.670850000000     0.165930000000     0.230240000000     1.29546    
Zr40     Zr     0.672700000000     0.298230000000     0.231290000000     1.29503    
Zr41     Zr     0.733460000000     0.230270000000     0.290960000000     1.2656     
Zr42     Zr     0.738360000000     0.232050000000     0.173530000000     1.26068    
Zr43     Zr     0.798010000000     0.802370000000     0.231710000000     1.29475    
Zr44     Zr     0.666010000000     0.791300000000     0.231300000000     1.29606    
Zr45     Zr     0.808720000000     0.674670000000     0.231670000000     1.29559    
Zr46     Zr     0.676850000000     0.663630000000     0.231700000000     1.29163    
Zr47     Zr     0.737290000000     0.732990000000     0.290410000000     1.26325    
Zr48     Zr     0.737400000000     0.732950000000     0.172850000000     1.26094    
Zr49     Zr     0.986810000000     0.981700000000     0.919920000000     1.417      
Zr50     Zr     0.923240000000     0.044790000000     0.982890000000     1.41226    
Zr51     Zr     0.050310000000     0.918280000000     0.482560000000     1.42987    
Zr52     Zr     0.923680000000     0.918010000000     0.482540000000     1.43192    
Zr53     Zr     0.049840000000     0.045410000000     0.982970000000     1.40982    
Zr54     Zr     0.987090000000     0.981610000000     0.545600000000     1.42655    
Zr55     Zr     0.923370000000     0.418150000000     0.984140000000     1.41469    
Zr56     Zr     0.922850000000     0.544850000000     0.981390000000     1.41063    
Zr57     Zr     0.050150000000     0.418420000000     0.482820000000     1.42918    
Zr58     Zr     0.988170000000     0.483970000000     0.544980000000     1.42163    
Zr59     Zr     0.985020000000     0.478980000000     0.919190000000     1.41959    
Zr60     Zr     0.049450000000     0.545210000000     0.480140000000     1.42928    
Zr61     Zr     0.422790000000     0.044860000000     0.980680000000     1.41333    
Zr62     Zr     0.549480000000     0.044800000000     0.979910000000     1.40873    
Zr63     Zr     0.422580000000     0.918120000000     0.481570000000     1.4329     
Zr64     Zr     0.486970000000     0.982270000000     0.543620000000     1.41637    
Zr65     Zr     0.485350000000     0.980420000000     0.918000000000     1.43058    
Zr66     Zr     0.549420000000     0.918040000000     0.481140000000     1.43059    
Zr67     Zr     0.423320000000     0.418050000000     0.982620000000     1.41308    
Zr68     Zr     0.549810000000     0.417660000000     0.982410000000     1.41259    
Zr69     Zr     0.423570000000     0.544850000000     0.482530000000     1.43235    
Zr70     Zr     0.486120000000     0.481280000000     0.919670000000     1.42143    
Zr71     Zr     0.487540000000     0.481380000000     0.545370000000     1.42467    
Zr72     Zr     0.550040000000     0.544620000000     0.482240000000     1.43216    
Zr73     Zr     0.168410000000     0.291300000000     0.732200000000     1.29272    
Zr74     Zr     0.178960000000     0.159300000000     0.732500000000     1.29504    
Zr75     Zr     0.296130000000     0.301510000000     0.732230000000     1.29841    
Zr76     Zr     0.306460000000     0.169330000000     0.732210000000     1.2969     
Zr77     Zr     0.237650000000     0.230710000000     0.791030000000     1.2654     
Zr78     Zr     0.237360000000     0.230420000000     0.673540000000     1.26094    
Zr79     Zr     0.179840000000     0.803390000000     0.731490000000     1.29013    
Zr80     Zr     0.167690000000     0.671490000000     0.730920000000     1.29555    
Zr81     Zr     0.307380000000     0.791570000000     0.732240000000     1.29648    
Zr82     Zr     0.295080000000     0.659580000000     0.731920000000     1.29675    
Zr83     Zr     0.236440000000     0.731160000000     0.790460000000     1.26319    
Zr84     Zr     0.238540000000     0.731940000000     0.672950000000     1.26108    
Zr85     Zr     0.798770000000     0.163950000000     0.733190000000     1.29468    
Zr86     Zr     0.800660000000     0.296480000000     0.734240000000     1.29968    
Zr87     Zr     0.670850000000     0.165930000000     0.730250000000     1.29563    
Zr88     Zr     0.672700000000     0.298230000000     0.731290000000     1.29523    
Zr89     Zr     0.733460000000     0.230270000000     0.790960000000     1.2657     
Zr90     Zr     0.738360000000     0.232050000000     0.673530000000     1.26062    
Zr91     Zr     0.798010000000     0.802370000000     0.731710000000     1.29487    
Zr92     Zr     0.666010000000     0.791300000000     0.731300000000     1.29619    
Zr93     Zr     0.808720000000     0.674670000000     0.731670000000     1.29579    
Zr94     Zr     0.676850000000     0.663630000000     0.731700000000     1.29182    
Zr95     Zr     0.737290000000     0.732990000000     0.790410000000     1.26339    
Zr96     Zr     0.737400000000     0.732950000000     0.672850000000     1.26091    


