data_structure

_audit_creation_method RASPA-1.0
_audit_creation_date 2023-5-23
_audit_author_name 'Poobodin Mano'

_cell_length_a    38.9364
_cell_length_b    38.936
_cell_length_c    27.7019
_cell_angle_alpha 90
_cell_angle_beta  90
_cell_angle_gamma 89.9999
_cell_volume      41996.8

_symmetry_cell_setting          triclinic
_symmetry_space_group_name_Hall 'P 1'
_symmetry_space_group_name_H-M  'P 1'
_symmetry_Int_Tables_number     1

_symmetry_equiv_pos_as_xyz 'x,y,z'

loop_
_atom_site_label
_atom_site_type_symbol
_atom_site_fract_x
_atom_site_fract_y
_atom_site_fract_z
_atom_site_charge
C1       C      0.046630000000     0.916180000000     0.861760000000     0.395715   
C2       C      0.923980000000     0.042540000000     0.862150000000     0.396271   
C3       C      0.922940000000     0.917030000000     0.862300000000     0.395917   
C4       C      0.047040000000     0.042360000000     0.862080000000     0.396413   
C5       C      0.922630000000     0.040660000000     0.108620000000     0.396386   
C6       C      0.048780000000     0.917750000000     0.108000000000     0.396404   
C7       C      0.861700000000     0.980180000000     0.986560000000     0.401201   
C8       C      0.985750000000     0.103070000000     0.984610000000     0.401057   
C9       C      0.109040000000     0.978770000000     0.986320000000     0.40138    
C10      C      0.984890000000     0.855810000000     0.984770000000     0.401142   
C11      C      0.922860000000     0.917570000000     0.108430000000     0.396533   
C12      C      0.048620000000     0.041130000000     0.107950000000     0.396288   
C13      C      0.985470000000     0.355820000000     0.986100000000     0.400792   
C14      C      0.861810000000     0.479380000000     0.984230000000     0.401507   
C15      C      0.924370000000     0.417250000000     0.109220000000     0.395924   
C16      C      0.922220000000     0.417130000000     0.862950000000     0.39659    
C17      C      0.985600000000     0.603100000000     0.985540000000     0.401443   
C18      C      0.109180000000     0.479370000000     0.983230000000     0.401419   
C19      C      0.923780000000     0.543010000000     0.107780000000     0.39632    
C20      C      0.922100000000     0.540850000000     0.862020000000     0.396314   
C21      C      0.047830000000     0.417290000000     0.862080000000     0.396368   
C22      C      0.047940000000     0.417860000000     0.108440000000     0.396041   
C23      C      0.047710000000     0.543180000000     0.107060000000     0.396261   
C24      C      0.047930000000     0.540460000000     0.860860000000     0.396204   
C25      C      0.361700000000     0.978670000000     0.986860000000     0.401527   
C26      C      0.484610000000     0.103080000000     0.984160000000     0.401406   
C27      C      0.422220000000     0.040520000000     0.108810000000     0.396123   
C28      C      0.423060000000     0.042580000000     0.862650000000     0.396593   
C29      C      0.608980000000     0.979960000000     0.986040000000     0.401277   
C30      C      0.485940000000     0.855760000000     0.984680000000     0.401247   
C31      C      0.548430000000     0.041370000000     0.107960000000     0.396516   
C32      C      0.546820000000     0.042840000000     0.862180000000     0.396302   
C33      C      0.423860000000     0.916390000000     0.862300000000     0.395674   
C34      C      0.422780000000     0.917820000000     0.108550000000     0.397198   
C35      C      0.548230000000     0.917370000000     0.107660000000     0.395762   
C36      C      0.547030000000     0.917420000000     0.861290000000     0.396392   
C37      C      0.361880000000     0.479180000000     0.982680000000     0.401286   
C38      C      0.485380000000     0.355740000000     0.986580000000     0.401142   
C39      C      0.423410000000     0.417030000000     0.861930000000     0.396153   
C40      C      0.423510000000     0.416830000000     0.108190000000     0.396346   
C41      C      0.609090000000     0.479670000000     0.983790000000     0.401261   
C42      C      0.485300000000     0.603090000000     0.986120000000     0.401661   
C43      C      0.548520000000     0.416840000000     0.862740000000     0.396342   
C44      C      0.547410000000     0.417060000000     0.108700000000     0.395763   
C45      C      0.423350000000     0.542580000000     0.107210000000     0.395872   
C46      C      0.423560000000     0.541020000000     0.860980000000     0.396289   
C47      C      0.548710000000     0.541100000000     0.862460000000     0.396      
C48      C      0.546860000000     0.542400000000     0.108650000000     0.396352   
C49      C      0.176380000000     0.291140000000     0.610610000000     0.381641   
C50      C      0.174710000000     0.169830000000     0.359380000000     0.383045   
C51      C      0.173710000000     0.170260000000     0.610450000000     0.379979   
C52      C      0.176800000000     0.291360000000     0.359460000000     0.383127   
C53      C      0.296530000000     0.289030000000     0.359660000000     0.383038   
C54      C      0.294150000000     0.167910000000     0.610770000000     0.381566   
C55      C      0.292670000000     0.166310000000     0.359660000000     0.383612   
C56      C      0.296540000000     0.288840000000     0.610700000000     0.379739   
C57      C      0.174000000000     0.788050000000     0.610740000000     0.383517   
C58      C      0.177350000000     0.667950000000     0.358760000000     0.382456   
C59      C      0.175130000000     0.668350000000     0.609670000000     0.380877   
C60      C      0.177330000000     0.791810000000     0.359710000000     0.384831   
C61      C      0.295350000000     0.790750000000     0.360080000000     0.3845     
C62      C      0.296740000000     0.669680000000     0.610170000000     0.383861   
C63      C      0.294440000000     0.668100000000     0.359020000000     0.384945   
C64      C      0.297090000000     0.787610000000     0.611360000000     0.381791   
C65      C      0.796710000000     0.170130000000     0.610800000000     0.382333   
C66      C      0.795590000000     0.290380000000     0.360030000000     0.382571   
C67      C      0.795560000000     0.289610000000     0.611080000000     0.380387   
C68      C      0.794120000000     0.167450000000     0.359590000000     0.384022   
C69      C      0.676210000000     0.168520000000     0.359350000000     0.383346   
C70      C      0.674520000000     0.288570000000     0.610860000000     0.383863   
C71      C      0.676780000000     0.291240000000     0.359790000000     0.384696   
C72      C      0.674880000000     0.169130000000     0.610380000000     0.38145    
C73      C      0.794380000000     0.790590000000     0.611030000000     0.382088   
C74      C      0.674890000000     0.789440000000     0.359340000000     0.383061   
C75      C      0.674700000000     0.789760000000     0.610460000000     0.380319   
C76      C      0.795890000000     0.789570000000     0.359670000000     0.383626   
C77      C      0.796360000000     0.670020000000     0.359600000000     0.383224   
C78      C      0.674740000000     0.669290000000     0.610470000000     0.383302   
C79      C      0.673310000000     0.671170000000     0.359550000000     0.384718   
C80      C      0.795470000000     0.669020000000     0.610590000000     0.381016   
C81      C      0.369640000000     0.351060000000     0.165650000000    -0.0850535  
C82      C      0.369180000000     0.362060000000     0.213890000000     0.0337792  
C83      C      0.387370000000     0.392100000000     0.225510000000    -0.0851537  
C84      C      0.405760000000     0.409730000000     0.190010000000     0.0683649  
C85      C      0.387500000000     0.369880000000     0.130780000000     0.0687575  
C86      C      0.350170000000     0.342350000000     0.251840000000     0.0330768  
C87      C      0.320720000000     0.323040000000     0.240660000000    -0.0840985  
C88      C      0.303470000000     0.304810000000     0.276830000000     0.0678898  
C89      C      0.342910000000     0.324980000000     0.335370000000     0.0674087  
C90      C      0.361290000000     0.342640000000     0.300000000000    -0.0843973  
C91      C      0.399350000000     0.380170000000     0.744760000000    -0.0852562  
C92      C      0.369510000000     0.361670000000     0.756400000000     0.0338849  
C93      C      0.358400000000     0.362170000000     0.804580000000    -0.0852095  
C94      C      0.376910000000     0.380440000000     0.839370000000     0.0687469  
C95      C      0.416680000000     0.398930000000     0.780180000000     0.0682462  
C96      C      0.350010000000     0.342410000000     0.718470000000     0.0322877  
C97      C      0.350100000000     0.353620000000     0.670380000000    -0.0837492  
C98      C      0.332470000000     0.335210000000     0.635040000000     0.0644828  
C99      C      0.312810000000     0.295420000000     0.693460000000     0.0666494  
C100     C      0.331010000000     0.312750000000     0.729620000000    -0.0836877  
C101     C      0.329820000000     0.645420000000     0.240190000000    -0.0839962  
C102     C      0.348150000000     0.615260000000     0.250790000000     0.0334481  
C103     C      0.347120000000     0.603000000000     0.298360000000    -0.0856765  
C104     C      0.329190000000     0.621010000000     0.333860000000     0.0685215  
C105     C      0.311360000000     0.662360000000     0.276430000000     0.0677144  
C106     C      0.368210000000     0.596670000000     0.212800000000     0.0335776  
C107     C      0.397810000000     0.577880000000     0.224740000000    -0.0850027  
C108     C      0.415690000000     0.559770000000     0.189200000000     0.0686917  
C109     C      0.376980000000     0.579500000000     0.129410000000     0.0684202  
C110     C      0.357970000000     0.597200000000     0.164250000000    -0.0847922  
C111     C      0.369680000000     0.606750000000     0.803580000000    -0.0852441  
C112     C      0.369580000000     0.596090000000     0.755210000000     0.0334944  
C113     C      0.388060000000     0.566240000000     0.743390000000    -0.0849415  
C114     C      0.406320000000     0.548450000000     0.778910000000     0.0685888  
C115     C      0.387400000000     0.587800000000     0.838390000000     0.068288   
C116     C      0.350580000000     0.615980000000     0.717420000000     0.0330692  
C117     C      0.321000000000     0.635050000000     0.728760000000    -0.0840654  
C118     C      0.303770000000     0.653530000000     0.692830000000     0.0671461  
C119     C      0.343490000000     0.634080000000     0.634170000000     0.0677836  
C120     C      0.361860000000     0.616180000000     0.669340000000    -0.08569    
C121     C      0.581600000000     0.568520000000     0.226260000000    -0.0851369  
C122     C      0.600520000000     0.598000000000     0.214140000000     0.0334994  
C123     C      0.600970000000     0.608190000000     0.165580000000    -0.0852483  
C124     C      0.583260000000     0.589130000000     0.130850000000     0.068677   
C125     C      0.563470000000     0.550560000000     0.190800000000     0.0680571  
C126     C      0.619440000000     0.617950000000     0.251900000000     0.033109   
C127     C      0.607390000000     0.619150000000     0.299560000000    -0.0857229  
C128     C      0.625740000000     0.636930000000     0.334850000000     0.0676307  
C129     C      0.667050000000     0.654260000000     0.277040000000     0.0670454  
C130     C      0.649750000000     0.635950000000     0.240990000000    -0.0842294  
C131     C      0.610370000000     0.615500000000     0.670670000000    -0.0854379  
C132     C      0.622190000000     0.615100000000     0.718490000000     0.0331966  
C133     C      0.652040000000     0.633880000000     0.729260000000    -0.0841774  
C134     C      0.668970000000     0.652350000000     0.693030000000     0.0678637  
C135     C      0.628390000000     0.633420000000     0.635200000000     0.0672248  
C136     C      0.603400000000     0.595330000000     0.756580000000     0.0336022  
C137     C      0.603500000000     0.606070000000     0.804930000000    -0.0849024  
C138     C      0.585590000000     0.587370000000     0.839880000000     0.0684228  
C139     C      0.566390000000     0.548030000000     0.780560000000     0.0688142  
C140     C      0.584770000000     0.565570000000     0.744960000000    -0.0851416  
C141     C      0.573040000000     0.381980000000     0.226400000000    -0.0848879  
C142     C      0.602650000000     0.363200000000     0.214440000000     0.0333908  
C143     C      0.612970000000     0.362840000000     0.165940000000    -0.0850314  
C144     C      0.593970000000     0.380540000000     0.131130000000     0.0681269  
C145     C      0.555120000000     0.400110000000     0.190860000000     0.0683326  
C146     C      0.622700000000     0.344420000000     0.252260000000     0.0333238  
C147     C      0.623740000000     0.356450000000     0.299950000000    -0.0858045  
C148     C      0.641810000000     0.338320000000     0.335200000000     0.0683772  
C149     C      0.659660000000     0.297290000000     0.277330000000     0.0672868  
C150     C      0.641080000000     0.314350000000     0.241330000000    -0.0842089  
C151     C      0.602230000000     0.350930000000     0.805320000000    -0.0850233  
C152     C      0.602430000000     0.361730000000     0.756990000000     0.0335462  
C153     C      0.584340000000     0.391820000000     0.745350000000    -0.0852651  
C154     C      0.566200000000     0.409640000000     0.780910000000     0.0686246  
C155     C      0.584620000000     0.369930000000     0.840240000000     0.0681829  
C156     C      0.621130000000     0.341810000000     0.718960000000     0.033025   
C157     C      0.650580000000     0.322470000000     0.729970000000    -0.0841977  
C158     C      0.667660000000     0.304170000000     0.693740000000     0.0669306  
C159     C      0.627970000000     0.324220000000     0.635440000000     0.06778    
C160     C      0.609750000000     0.341960000000     0.670910000000    -0.0856046  
C161     C      0.456100000000     0.767100000000     0.997120000000    -0.0868382  
C162     C      0.485800000000     0.748530000000     0.985460000000     0.0344048  
C163     C      0.515600000000     0.766890000000     0.973530000000    -0.0860882  
C164     C      0.515350000000     0.802690000000     0.974080000000     0.0701098  
C165     C      0.456490000000     0.802850000000     0.995960000000     0.0690156  
C166     C      0.485650000000     0.710320000000     0.985770000000     0.0344501  
C167     C      0.515280000000     0.691780000000     0.997860000000    -0.0868673  
C168     C      0.514810000000     0.656010000000     0.997280000000     0.069575   
C169     C      0.455990000000     0.656150000000     0.975200000000     0.0697705  
C170     C      0.455830000000     0.691920000000     0.974060000000    -0.0861697  
C171     C      0.514450000000     0.191860000000     0.973000000000    -0.0861725  
C172     C      0.484780000000     0.210300000000     0.985200000000     0.034456   
C173     C      0.454960000000     0.191840000000     0.996650000000    -0.0865986  
C174     C      0.455170000000     0.156070000000     0.995240000000     0.0690605  
C175     C      0.514020000000     0.156090000000     0.973280000000     0.0701427  
C176     C      0.484940000000     0.248510000000     0.985870000000     0.0344287  
C177     C      0.514720000000     0.266780000000     0.998120000000    -0.0867065  
C178     C      0.514550000000     0.302580000000     0.997660000000     0.069328   
C179     C      0.455760000000     0.302890000000     0.975380000000     0.0695031  
C180     C      0.455300000000     0.267140000000     0.974150000000    -0.0861588  
C181     C      0.368320000000     0.852790000000     0.166380000000    -0.085306   
C182     C      0.367690000000     0.864130000000     0.214450000000     0.0339694  
C183     C      0.385880000000     0.894220000000     0.225830000000    -0.0849717  
C184     C      0.404510000000     0.911530000000     0.190270000000     0.0691148  
C185     C      0.386380000000     0.871300000000     0.131430000000     0.0685809  
C186     C      0.348560000000     0.844630000000     0.252480000000     0.0335135  
C187     C      0.359520000000     0.845190000000     0.300710000000    -0.0850244  
C188     C      0.341200000000     0.827430000000     0.336040000000     0.06857    
C189     C      0.302110000000     0.806770000000     0.277350000000     0.0682654  
C190     C      0.319280000000     0.825110000000     0.241230000000    -0.0840112  
C191     C      0.362480000000     0.840460000000     0.671070000000    -0.0841069  
C192     C      0.351220000000     0.840540000000     0.719160000000     0.0328824  
C193     C      0.321680000000     0.821380000000     0.730400000000    -0.0837806  
C194     C      0.304350000000     0.803110000000     0.694300000000     0.0669386  
C195     C      0.344050000000     0.822770000000     0.635770000000     0.0675931  
C196     C      0.370140000000     0.860570000000     0.756940000000     0.0338055  
C197     C      0.388410000000     0.890510000000     0.744970000000    -0.0849465  
C198     C      0.406590000000     0.908500000000     0.780350000000     0.0684921  
C199     C      0.388050000000     0.869180000000     0.840080000000     0.0687811  
C200     C      0.370370000000     0.850030000000     0.805370000000    -0.0848721  
C201     C      0.395630000000     0.074780000000     0.226550000000    -0.0848978  
C202     C      0.366110000000     0.093630000000     0.214390000000     0.033764   
C203     C      0.356040000000     0.094150000000     0.165790000000    -0.0849456  
C204     C      0.375250000000     0.076610000000     0.131050000000     0.0687896  
C205     C      0.413790000000     0.056870000000     0.191060000000     0.0683275  
C206     C      0.346030000000     0.112440000000     0.252100000000     0.0334407  
C207     C      0.344540000000     0.100230000000     0.299670000000    -0.0849283  
C208     C      0.326650000000     0.118530000000     0.334920000000     0.0690216  
C209     C      0.309800000000     0.160110000000     0.277230000000     0.0674949  
C210     C      0.328190000000     0.142850000000     0.241230000000    -0.0840141  
C211     C      0.357830000000     0.097210000000     0.805390000000    -0.0852796  
C212     C      0.368260000000     0.096800000000     0.756910000000     0.0337603  
C213     C      0.397910000000     0.078070000000     0.745100000000    -0.0853935  
C214     C      0.415660000000     0.059890000000     0.780680000000     0.0689073  
C215     C      0.376730000000     0.079470000000     0.840290000000     0.0683812  
C216     C      0.348290000000     0.115430000000     0.718870000000     0.0327835  
C217     C      0.347470000000     0.103260000000     0.671230000000    -0.0851039  
C218     C      0.329480000000     0.121220000000     0.635740000000     0.0660665  
C219     C      0.311300000000     0.162360000000     0.693270000000     0.0669223  
C220     C      0.329820000000     0.145480000000     0.729490000000    -0.0841337  
C221     C      0.652130000000     0.134540000000     0.240250000000    -0.083752   
C222     C      0.622970000000     0.114800000000     0.251510000000     0.0332331  
C223     C      0.612120000000     0.114100000000     0.299770000000    -0.0844497  
C224     C      0.630420000000     0.131840000000     0.335130000000     0.0678326  
C225     C      0.669300000000     0.152860000000     0.276430000000     0.0679738  
C226     C      0.603860000000     0.095200000000     0.213510000000     0.0339441  
C227     C      0.603040000000     0.106510000000     0.165440000000    -0.0850685  
C228     C      0.584870000000     0.087960000000     0.130600000000     0.0684131  
C229     C      0.567060000000     0.047700000000     0.189540000000     0.0689613  
C230     C      0.585790000000     0.065050000000     0.224980000000    -0.0848969  
C231     C      0.639400000000     0.146390000000     0.729110000000    -0.0836532  
C232     C      0.620640000000     0.116540000000     0.718280000000     0.0324861  
C233     C      0.621060000000     0.104730000000     0.670460000000    -0.0837449  
C234     C      0.639000000000     0.122780000000     0.635040000000     0.065251   
C235     C      0.657890000000     0.163350000000     0.692920000000     0.067033   
C236     C      0.600900000000     0.097680000000     0.756330000000     0.0339919  
C237     C      0.611710000000     0.097710000000     0.804640000000    -0.0852564  
C238     C      0.593070000000     0.079730000000     0.839570000000     0.0682657  
C239     C      0.553650000000     0.060600000000     0.780290000000     0.0688525  
C240     C      0.571140000000     0.079050000000     0.744700000000    -0.0853125  
C241     C      0.572370000000     0.880590000000     0.224790000000    -0.0849563  
C242     C      0.602430000000     0.862410000000     0.213280000000     0.0340292  
C243     C      0.613640000000     0.863060000000     0.165130000000    -0.0848     
C244     C      0.595010000000     0.881130000000     0.130250000000     0.0690255  
C245     C      0.554960000000     0.899220000000     0.189330000000     0.0685457  
C246     C      0.621950000000     0.843240000000     0.251300000000     0.0333306  
C247     C      0.621260000000     0.854100000000     0.299570000000    -0.0842649  
C248     C      0.638720000000     0.835610000000     0.335010000000     0.0677012  
C249     C      0.659540000000     0.796590000000     0.276360000000     0.0682403  
C250     C      0.641470000000     0.813940000000     0.240100000000    -0.0836516  
C251     C      0.601710000000     0.852270000000     0.804040000000    -0.0854539  
C252     C      0.601790000000     0.863010000000     0.755710000000     0.0340455  
C253     C      0.582970000000     0.892610000000     0.743850000000    -0.085108   
C254     C      0.564390000000     0.910130000000     0.779290000000     0.0685233  
C255     C      0.583610000000     0.870930000000     0.838800000000     0.0688673  
C256     C      0.621000000000     0.843380000000     0.717910000000     0.0323277  
C257     C      0.650950000000     0.824840000000     0.729050000000    -0.0836091  
C258     C      0.668290000000     0.806520000000     0.693030000000     0.066711   
C259     C      0.627900000000     0.825140000000     0.634740000000     0.0646618  
C260     C      0.609480000000     0.842880000000     0.669970000000    -0.0837608  
C261     C      0.772910000000     0.449790000000     0.994990000000    -0.0866843  
C262     C      0.754560000000     0.479520000000     0.982730000000     0.0343751  
C263     C      0.773150000000     0.509170000000     0.970820000000    -0.0859774  
C264     C      0.808920000000     0.508800000000     0.972110000000     0.069979   
C265     C      0.808690000000     0.450050000000     0.994590000000     0.0689203  
C266     C      0.716340000000     0.479640000000     0.982590000000     0.0343972  
C267     C      0.697800000000     0.449900000000     0.970970000000    -0.0859874  
C268     C      0.662030000000     0.450260000000     0.972080000000     0.0700181  
C269     C      0.662170000000     0.509170000000     0.993710000000     0.0690488  
C270     C      0.697950000000     0.509450000000     0.994280000000    -0.0865113  
C271     C      0.197820000000     0.449420000000     0.970340000000    -0.0861727  
C272     C      0.216420000000     0.479250000000     0.981350000000     0.034481   
C273     C      0.198080000000     0.509140000000     0.992790000000    -0.08683    
C274     C      0.162300000000     0.508860000000     0.992500000000     0.0689737  
C275     C      0.162050000000     0.449790000000     0.971770000000     0.0702532  
C276     C      0.254640000000     0.479140000000     0.981190000000     0.0343205  
C277     C      0.273040000000     0.449480000000     0.993610000000    -0.0866691  
C278     C      0.308810000000     0.449780000000     0.993110000000     0.0688586  
C279     C      0.308950000000     0.508430000000     0.970140000000     0.0699796  
C280     C      0.273180000000     0.508750000000     0.968910000000    -0.0860393  
C281     C      0.860480000000     0.344310000000     0.301200000000    -0.0842368  
C282     C      0.849930000000     0.343670000000     0.252810000000     0.0331557  
C283     C      0.820650000000     0.324200000000     0.241230000000    -0.0837517  
C284     C      0.803100000000     0.306040000000     0.277210000000     0.0678298  
C285     C      0.841800000000     0.326740000000     0.336350000000     0.067497   
C286     C      0.869420000000     0.363090000000     0.214980000000     0.033814   
C287     C      0.887750000000     0.393090000000     0.226550000000    -0.0847097  
C288     C      0.906490000000     0.410450000000     0.191100000000     0.0683868  
C289     C      0.888410000000     0.370360000000     0.132080000000     0.0688041  
C290     C      0.870240000000     0.351810000000     0.166900000000    -0.0849484  
C291     C      0.897600000000     0.380940000000     0.745680000000    -0.0855323  
C292     C      0.867950000000     0.362200000000     0.757430000000     0.0340789  
C293     C      0.857170000000     0.362210000000     0.805770000000    -0.0851821  
C294     C      0.875800000000     0.380310000000     0.840620000000     0.068739   
C295     C      0.915050000000     0.399480000000     0.781150000000     0.0686749  
C296     C      0.848400000000     0.343150000000     0.719400000000     0.0323624  
C297     C      0.848020000000     0.354880000000     0.671550000000    -0.0837857  
C298     C      0.830570000000     0.336510000000     0.636010000000     0.0646539  
C299     C      0.811930000000     0.295790000000     0.693840000000     0.0665894  
C300     C      0.829960000000     0.313090000000     0.730180000000    -0.0837416  
C301     C      0.900100000000     0.580150000000     0.224910000000    -0.0851177  
C302     C      0.869880000000     0.598120000000     0.213550000000     0.0338489  
C303     C      0.858550000000     0.597380000000     0.165470000000    -0.0850804  
C304     C      0.877140000000     0.579350000000     0.130540000000     0.0682684  
C305     C      0.917490000000     0.561550000000     0.189380000000     0.0689366  
C306     C      0.850260000000     0.617100000000     0.251640000000     0.033169   
C307     C      0.851000000000     0.606160000000     0.299870000000    -0.0845047  
C308     C      0.833210000000     0.624360000000     0.335300000000     0.0676933  
C309     C      0.812100000000     0.663280000000     0.276720000000     0.0678268  
C310     C      0.830460000000     0.646230000000     0.240480000000    -0.0840506  
C311     C      0.818340000000     0.633520000000     0.729280000000    -0.0838053  
C312     C      0.848150000000     0.614700000000     0.718370000000     0.0325687  
C313     C      0.859880000000     0.615120000000     0.670520000000    -0.0836744  
C314     C      0.841810000000     0.633110000000     0.635160000000     0.0652973  
C315     C      0.801350000000     0.652040000000     0.693140000000     0.067034   
C316     C      0.867060000000     0.594940000000     0.756340000000     0.0340055  
C317     C      0.867190000000     0.605780000000     0.804630000000    -0.0852389  
C318     C      0.885250000000     0.587150000000     0.839480000000     0.0683508  
C319     C      0.904140000000     0.547640000000     0.780180000000     0.0688506  
C320     C      0.885620000000     0.565140000000     0.744660000000    -0.0850628  
C321     C      0.124670000000     0.602960000000     0.297910000000    -0.0836865  
C322     C      0.123520000000     0.615390000000     0.250420000000     0.032593   
C323     C      0.141880000000     0.645540000000     0.239900000000    -0.0837026  
C324     C      0.160430000000     0.662360000000     0.276160000000     0.0669084  
C325     C      0.142690000000     0.620850000000     0.333430000000     0.0658452  
C326     C      0.103270000000     0.596990000000     0.212470000000     0.0340681  
C327     C      0.113350000000     0.597600000000     0.163850000000    -0.0851785  
C328     C      0.094170000000     0.580030000000     0.129050000000     0.0685469  
C329     C      0.055580000000     0.560310000000     0.189020000000     0.0689071  
C330     C      0.073640000000     0.578290000000     0.224510000000    -0.0852991  
C331     C      0.113070000000     0.594940000000     0.803180000000    -0.0852901  
C332     C      0.102200000000     0.595030000000     0.754900000000     0.0340701  
C333     C      0.072600000000     0.576170000000     0.743190000000    -0.0850097  
C334     C      0.055150000000     0.557630000000     0.778750000000     0.0685122  
C335     C      0.094480000000     0.576870000000     0.838050000000     0.0689556  
C336     C      0.121670000000     0.614360000000     0.717030000000     0.0324491  
C337     C      0.140110000000     0.644360000000     0.728190000000    -0.0835988  
C338     C      0.158320000000     0.661800000000     0.692180000000     0.0669888  
C339     C      0.139750000000     0.621460000000     0.633790000000     0.0650708  
C340     C      0.122100000000     0.602940000000     0.669030000000    -0.083515   
C341     C      0.151910000000     0.324860000000     0.240410000000    -0.0838618  
C342     C      0.122900000000     0.344750000000     0.251920000000     0.0331982  
C343     C      0.112490000000     0.345790000000     0.300360000000    -0.0844822  
C344     C      0.131070000000     0.328230000000     0.335620000000     0.0673977  
C345     C      0.169330000000     0.306680000000     0.276510000000     0.0679398  
C346     C      0.103480000000     0.364160000000     0.214000000000     0.0338586  
C347     C      0.085330000000     0.394280000000     0.225450000000    -0.0847683  
C348     C      0.066440000000     0.411500000000     0.190060000000     0.0686306  
C349     C      0.084210000000     0.371180000000     0.131170000000     0.0690469  
C350     C      0.102490000000     0.352720000000     0.165980000000    -0.0849493  
C351     C      0.140930000000     0.314170000000     0.729250000000    -0.084196   
C352     C      0.122650000000     0.344320000000     0.718440000000     0.0329068  
C353     C      0.123510000000     0.356310000000     0.670730000000    -0.0849971  
C354     C      0.141340000000     0.338110000000     0.635330000000     0.0662151  
C355     C      0.159310000000     0.297050000000     0.693100000000     0.0670808  
C356     C      0.102810000000     0.363190000000     0.756380000000     0.033831   
C357     C      0.073270000000     0.382090000000     0.744470000000    -0.0851868  
C358     C      0.055530000000     0.400350000000     0.780000000000     0.0686054  
C359     C      0.094320000000     0.380620000000     0.839710000000     0.0689248  
C360     C      0.113210000000     0.362810000000     0.804860000000    -0.085251   
C361     C      0.697920000000     0.950520000000     0.975280000000    -0.0861563  
C362     C      0.716230000000     0.980280000000     0.987450000000     0.034221   
C363     C      0.697610000000     0.009950000000     0.999200000000    -0.0864381  
C364     C      0.661820000000     0.009520000000     0.997920000000     0.0694391  
C365     C      0.662150000000     0.950730000000     0.975690000000     0.0694375  
C366     C      0.754450000000     0.980380000000     0.987700000000     0.0343147  
C367     C      0.772930000000     0.950640000000     0.999470000000    -0.0868267  
C368     C      0.808700000000     0.950920000000     0.998360000000     0.0694205  
C369     C      0.808680000000     0.009780000000     0.976510000000     0.0694984  
C370     C      0.772900000000     0.010140000000     0.975930000000    -0.086028   
C371     C      0.197800000000     0.008130000000     0.999980000000    -0.0864797  
C372     C      0.216270000000     0.978410000000     0.987990000000     0.0342983  
C373     C      0.197810000000     0.948760000000     0.975730000000    -0.0861732  
C374     C      0.162030000000     0.949180000000     0.976110000000     0.0695241  
C375     C      0.162040000000     0.007920000000     0.998640000000     0.0694907  
C376     C      0.254470000000     0.978440000000     0.987930000000     0.0343062  
C377     C      0.272840000000     0.008260000000     0.976210000000    -0.0861626  
C378     C      0.308600000000     0.008000000000     0.976760000000     0.0696851  
C379     C      0.308820000000     0.949050000000     0.998180000000     0.0695897  
C380     C      0.273040000000     0.948670000000     0.999350000000    -0.0864152  
C381     C      0.955200000000     0.766940000000     0.973440000000    -0.0859003  
C382     C      0.985030000000     0.748560000000     0.985160000000     0.0343554  
C383     C      0.014750000000     0.767110000000     0.996780000000    -0.0865943  
C384     C      0.014360000000     0.802860000000     0.995770000000     0.0691001  
C385     C      0.955450000000     0.802740000000     0.974150000000     0.0700272  
C386     C      0.985180000000     0.710340000000     0.985310000000     0.034378   
C387     C      0.014980000000     0.691970000000     0.973430000000    -0.085835   
C388     C      0.014830000000     0.656200000000     0.974480000000     0.0697896  
C389     C      0.956050000000     0.656010000000     0.996780000000     0.0695537  
C390     C      0.955570000000     0.691780000000     0.997440000000    -0.0866404  
C391     C      0.956100000000     0.191810000000     0.997210000000    -0.0866736  
C392     C      0.985770000000     0.210340000000     0.985220000000     0.0341717  
C393     C      0.015460000000     0.191910000000     0.972960000000    -0.0858366  
C394     C      0.015150000000     0.156110000000     0.973540000000     0.0698784  
C395     C      0.956420000000     0.156050000000     0.996080000000     0.0688659  
C396     C      0.985710000000     0.248560000000     0.985520000000     0.0342656  
C397     C      0.955840000000     0.267020000000     0.974260000000    -0.0860492  
C398     C      0.956070000000     0.302780000000     0.975420000000     0.0694497  
C399     C      0.015060000000     0.302840000000     0.996580000000     0.0695051  
C400     C      0.015480000000     0.267060000000     0.997130000000    -0.0866254  
C401     C      0.857400000000     0.863420000000     0.165970000000    -0.0851281  
C402     C      0.868590000000     0.862780000000     0.214120000000     0.0340025  
C403     C      0.898610000000     0.881030000000     0.225680000000    -0.0851098  
C404     C      0.916030000000     0.899650000000     0.190210000000     0.0686201  
C405     C      0.876040000000     0.881460000000     0.131120000000     0.0692132  
C406     C      0.849070000000     0.843520000000     0.252040000000     0.0331551  
C407     C      0.849670000000     0.854310000000     0.300340000000    -0.0844838  
C408     C      0.832120000000     0.835780000000     0.335640000000     0.0673799  
C409     C      0.811440000000     0.796820000000     0.276800000000     0.0681012  
C410     C      0.829600000000     0.814210000000     0.240680000000    -0.0838798  
C411     C      0.847760000000     0.855550000000     0.670730000000    -0.0849702  
C412     C      0.847770000000     0.844220000000     0.718790000000     0.0326027  
C413     C      0.828530000000     0.814730000000     0.729960000000    -0.0840306  
C414     C      0.810160000000     0.797570000000     0.693860000000     0.0664584  
C415     C      0.829940000000     0.837270000000     0.635400000000     0.0661727  
C416     C      0.867730000000     0.863050000000     0.756680000000     0.0335258  
C417     C      0.897760000000     0.881220000000     0.744920000000    -0.0851481  
C418     C      0.915610000000     0.899420000000     0.780420000000     0.0685758  
C419     C      0.876000000000     0.880990000000     0.839850000000     0.0680838  
C420     C      0.856990000000     0.863300000000     0.805020000000    -0.0851099  
C421     C      0.829260000000     0.143720000000     0.241020000000    -0.083962   
C422     C      0.847220000000     0.113390000000     0.251960000000     0.0334968  
C423     C      0.846040000000     0.101410000000     0.299650000000    -0.0849495  
C424     C      0.828320000000     0.119830000000     0.334940000000     0.0692288  
C425     C      0.811000000000     0.161090000000     0.277060000000     0.0675155  
C426     C      0.867110000000     0.094390000000     0.214190000000     0.0338276  
C427     C      0.856910000000     0.094850000000     0.165640000000    -0.0849763  
C428     C      0.875930000000     0.077090000000     0.130890000000     0.0688847  
C429     C      0.914460000000     0.057210000000     0.190820000000     0.0684911  
C430     C      0.896540000000     0.075380000000     0.226290000000    -0.0848494  
C431     C      0.862210000000     0.117390000000     0.670430000000    -0.0850797  
C432     C      0.851080000000     0.117540000000     0.718580000000     0.0327343  
C433     C      0.821510000000     0.136630000000     0.729820000000    -0.0842037  
C434     C      0.804070000000     0.154700000000     0.693680000000     0.0665466  
C435     C      0.843650000000     0.134900000000     0.635070000000     0.0664074  
C436     C      0.870130000000     0.097800000000     0.756470000000     0.0335542  
C437     C      0.888310000000     0.067780000000     0.744750000000    -0.0852155  
C438     C      0.906550000000     0.049990000000     0.780250000000     0.0681729  
C439     C      0.888230000000     0.089710000000     0.839620000000     0.0686467  
C440     C      0.870500000000     0.108660000000     0.804770000000    -0.0850493  
C441     C      0.102780000000     0.106690000000     0.165280000000    -0.0850634  
C442     C      0.103150000000     0.095790000000     0.213550000000     0.033948   
C443     C      0.084990000000     0.065730000000     0.225210000000    -0.0849103  
C444     C      0.066620000000     0.048050000000     0.189720000000     0.0689064  
C445     C      0.084940000000     0.087840000000     0.130440000000     0.0684239  
C446     C      0.121930000000     0.115710000000     0.251520000000     0.03325    
C447     C      0.151280000000     0.135200000000     0.240420000000    -0.0836617  
C448     C      0.168230000000     0.153730000000     0.276580000000     0.0682128  
C449     C      0.128680000000     0.133510000000     0.334940000000     0.0676766  
C450     C      0.110600000000     0.115540000000     0.299570000000    -0.0843206  
C451     C      0.138890000000     0.146800000000     0.729310000000    -0.0837187  
C452     C      0.119850000000     0.117160000000     0.718250000000     0.0322842  
C453     C      0.119740000000     0.105850000000     0.670200000000    -0.0838743  
C454     C      0.137490000000     0.124120000000     0.634820000000     0.0645174  
C455     C      0.157210000000     0.163980000000     0.693130000000     0.0665547  
C456     C      0.100390000000     0.097990000000     0.756290000000     0.0338262  
C457     C      0.111580000000     0.097570000000     0.804420000000    -0.0852925  
C458     C      0.093210000000     0.079290000000     0.839320000000     0.0682378  
C459     C      0.053340000000     0.060660000000     0.780340000000     0.068775   
C460     C      0.070540000000     0.079430000000     0.744810000000    -0.0852482  
C461     C      0.142530000000     0.815380000000     0.240930000000    -0.0843375  
C462     C      0.124360000000     0.845590000000     0.251700000000     0.0334398  
C463     C      0.125280000000     0.857600000000     0.299430000000    -0.0856467  
C464     C      0.142940000000     0.839260000000     0.334880000000     0.06849    
C465     C      0.160740000000     0.798130000000     0.277110000000     0.0673517  
C466     C      0.104450000000     0.864400000000     0.213770000000     0.0335709  
C467     C      0.114690000000     0.863880000000     0.165210000000    -0.084825   
C468     C      0.095590000000     0.881450000000     0.130330000000     0.0687269  
C469     C      0.056920000000     0.901230000000     0.190150000000     0.0682833  
C470     C      0.074890000000     0.883230000000     0.225720000000    -0.0850742  
C471     C      0.148950000000     0.821540000000     0.729730000000    -0.0842911  
C472     C      0.119510000000     0.840810000000     0.718360000000     0.0329148  
C473     C      0.108530000000     0.841010000000     0.670130000000    -0.0855298  
C474     C      0.127100000000     0.823410000000     0.634870000000     0.0675947  
C475     C      0.166410000000     0.803380000000     0.693670000000     0.0665938  
C476     C      0.100430000000     0.860660000000     0.756170000000     0.0332663  
C477     C      0.100030000000     0.849900000000     0.804510000000    -0.0848945  
C478     C      0.082310000000     0.868940000000     0.839290000000     0.0683969  
C479     C      0.063970000000     0.908540000000     0.779790000000     0.0678791  
C480     C      0.082220000000     0.890670000000     0.744350000000    -0.0849909  
H1       H      0.915840000000     0.979780000000     0.916030000000     0.210859   
H2       H      0.054850000000     0.979170000000     0.915650000000     0.210107   
H3       H      0.985250000000     0.909880000000     0.054260000000     0.210772   
H4       H      0.985750000000     0.048730000000     0.054590000000     0.210399   
H5       H      0.916190000000     0.479850000000     0.054770000000     0.21046    
H6       H      0.985260000000     0.409730000000     0.916450000000     0.211264   
H7       H      0.055180000000     0.479820000000     0.053890000000     0.210896   
H8       H      0.985290000000     0.548620000000     0.915250000000     0.209981   
H9       H      0.485100000000     0.048930000000     0.054590000000     0.210203   
H10      H      0.415710000000     0.979060000000     0.916310000000     0.209924   
H11      H      0.486000000000     0.910000000000     0.054350000000     0.211269   
H12      H      0.554660000000     0.980020000000     0.915500000000     0.210841   
H13      H      0.485790000000     0.409680000000     0.916240000000     0.211241   
H14      H      0.415870000000     0.479590000000     0.053790000000     0.210233   
H15      H      0.485860000000     0.548620000000     0.915430000000     0.210724   
H16      H      0.554830000000     0.479580000000     0.054760000000     0.210516   
H17      H      0.160940000000     0.231680000000     0.416150000000     0.210191   
H18      H      0.233060000000     0.153990000000     0.557110000000     0.204907   
H19      H      0.309940000000     0.227070000000     0.416450000000     0.210462   
H20      H      0.237400000000     0.304910000000     0.557090000000     0.204979   
H21      H      0.196250000000     0.108110000000     0.489720000000     0.125685   
H22      H      0.270210000000     0.100750000000     0.489100000000     0.185949   
H23      H      0.351530000000     0.192280000000     0.514760000000     0.149053   
H24      H      0.360160000000     0.268510000000     0.456510000000     0.200146   
H25      H      0.274540000000     0.350840000000     0.490770000000     0.125407   
H26      H      0.201770000000     0.357870000000     0.486710000000     0.186309   
H27      H      0.119370000000     0.265740000000     0.515640000000     0.149249   
H28      H      0.110700000000     0.190800000000     0.455500000000     0.199684   
H29      H      0.358840000000     0.264110000000     0.516550000000     0.204018   
H30      H      0.159030000000     0.353730000000     0.483490000000     0.203642   
H31      H      0.111600000000     0.194470000000     0.515650000000     0.203942   
H32      H      0.312840000000     0.105630000000     0.485020000000     0.202925   
H33      H      0.161230000000     0.729810000000     0.415880000000     0.21125    
H34      H      0.235690000000     0.653590000000     0.556500000000     0.203346   
H35      H      0.310310000000     0.729280000000     0.416260000000     0.213885   
H36      H      0.235830000000     0.804540000000     0.557770000000     0.202626   
H37      H      0.199490000000     0.606660000000     0.488250000000     0.125749   
H38      H      0.273550000000     0.602080000000     0.493710000000     0.185095   
H39      H      0.356300000000     0.662420000000     0.484740000000     0.141269   
H40      H      0.360470000000     0.785490000000     0.460900000000     0.204044   
H41      H      0.269270000000     0.851250000000     0.488750000000     0.12597    
H42      H      0.197530000000     0.856560000000     0.496520000000     0.185179   
H43      H      0.115080000000     0.796220000000     0.484810000000     0.141004   
H44      H      0.112360000000     0.684210000000     0.453330000000     0.202042   
H45      H      0.357940000000     0.758840000000     0.508140000000     0.212078   
H46      H      0.156050000000     0.851540000000     0.482280000000     0.195378   
H47      H      0.113220000000     0.694510000000     0.511960000000     0.211828   
H48      H      0.315350000000     0.607200000000     0.481490000000     0.195014   
H49      H      0.810210000000     0.229100000000     0.416500000000     0.210154   
H50      H      0.735440000000     0.304740000000     0.557450000000     0.203513   
H51      H      0.661150000000     0.229760000000     0.416150000000     0.212068   
H52      H      0.735550000000     0.153770000000     0.557110000000     0.203754   
H53      H      0.770960000000     0.351700000000     0.490610000000     0.125697   
H54      H      0.697540000000     0.356630000000     0.494720000000     0.185494   
H55      H      0.614920000000     0.296000000000     0.485000000000     0.140826   
H56      H      0.611480000000     0.182960000000     0.456680000000     0.202648   
H57      H      0.700180000000     0.107010000000     0.489790000000     0.125601   
H58      H      0.773140000000     0.101990000000     0.492180000000     0.185503   
H59      H      0.853310000000     0.197030000000     0.510500000000     0.148391   
H60      H      0.859250000000     0.271470000000     0.456780000000     0.199749   
H61      H      0.613460000000     0.194950000000     0.514600000000     0.212037   
H62      H      0.815540000000     0.107340000000     0.485490000000     0.203363   
H63      H      0.858240000000     0.268440000000     0.516990000000     0.203635   
H64      H      0.655730000000     0.351430000000     0.482750000000     0.195204   
H65      H      0.735560000000     0.804130000000     0.416360000000     0.209829   
H66      H      0.659740000000     0.729820000000     0.557050000000     0.204643   
H67      H      0.734900000000     0.655040000000     0.416250000000     0.210579   
H68      H      0.810690000000     0.729600000000     0.557300000000     0.203969   
H69      H      0.612970000000     0.764920000000     0.489690000000     0.125448   
H70      H      0.607470000000     0.690700000000     0.488300000000     0.185964   
H71      H      0.670120000000     0.609040000000     0.475670000000     0.139688   
H72      H      0.780880000000     0.605570000000     0.456640000000     0.202242   
H73      H      0.857600000000     0.693960000000     0.491580000000     0.125592   
H74      H      0.862360000000     0.765650000000     0.490740000000     0.185819   
H75      H      0.766580000000     0.847040000000     0.511330000000     0.148255   
H76      H      0.693720000000     0.853180000000     0.456000000000     0.198938   
H77      H      0.770580000000     0.607350000000     0.515210000000     0.212475   
H78      H      0.857820000000     0.808130000000     0.483870000000     0.204027   
H79      H      0.695600000000     0.852430000000     0.516310000000     0.203294   
H80      H      0.613780000000     0.648240000000     0.484900000000     0.194826   
H81      H      0.387240000000     0.402450000000     0.261750000000     0.0497956  
H82      H      0.419360000000     0.432750000000     0.200950000000     0.0236397  
H83      H      0.387100000000     0.360200000000     0.094080000000     0.0254863  
H84      H      0.356760000000     0.327720000000     0.154620000000     0.0496     
H85      H      0.310500000000     0.322330000000     0.204360000000     0.0493503  
H86      H      0.280770000000     0.290460000000     0.266460000000     0.0277969  
H87      H      0.352670000000     0.326190000000     0.372000000000     0.0253192  
H88      H      0.384380000000     0.356100000000     0.310700000000     0.049633   
H89      H      0.335200000000     0.349040000000     0.815600000000     0.0496783  
H90      H      0.367140000000     0.380070000000     0.876030000000     0.0253538  
H91      H      0.439560000000     0.412760000000     0.769240000000     0.023676   
H92      H      0.409770000000     0.380020000000     0.708550000000     0.0494465  
H93      H      0.363330000000     0.376850000000     0.659700000000     0.0494324  
H94      H      0.333490000000     0.345120000000     0.598490000000     0.0284507  
H95      H      0.298650000000     0.272590000000     0.703770000000     0.0275863  
H96      H      0.330480000000     0.302470000000     0.765910000000     0.0490941  
H97      H      0.359810000000     0.579340000000     0.308480000000     0.0487296  
H98      H      0.329420000000     0.610400000000     0.370050000000     0.0213999  
H99      H      0.297860000000     0.685680000000     0.266540000000     0.0280289  
H100     H      0.330100000000     0.656440000000     0.204330000000     0.0498594  
H101     H      0.407560000000     0.577290000000     0.261310000000     0.0491855  
H102     H      0.438310000000     0.545620000000     0.200410000000     0.0246968  
H103     H      0.367830000000     0.580580000000     0.092470000000     0.0246592  
H104     H      0.335020000000     0.610660000000     0.152970000000     0.0498396  
H105     H      0.388240000000     0.556180000000     0.706980000000     0.048968   
H106     H      0.420170000000     0.525590000000     0.767900000000     0.0246469  
H107     H      0.386710000000     0.597280000000     0.875190000000     0.0238105  
H108     H      0.356640000000     0.629950000000     0.814800000000     0.0494472  
H109     H      0.310630000000     0.635390000000     0.764990000000     0.0494862  
H110     H      0.280950000000     0.667650000000     0.703320000000     0.0275708  
H111     H      0.353340000000     0.633220000000     0.597580000000     0.0218821  
H112     H      0.385030000000     0.602910000000     0.658560000000     0.0486028  
H113     H      0.614460000000     0.631100000000     0.154200000000     0.0495782  
H114     H      0.584360000000     0.598210000000     0.093880000000     0.024853   
H115     H      0.549290000000     0.527980000000     0.202080000000     0.0235333  
H116     H      0.580990000000     0.558860000000     0.262880000000     0.0487318  
H117     H      0.583650000000     0.606710000000     0.309890000000     0.0485831  
H118     H      0.615270000000     0.636840000000     0.371120000000     0.021476   
H119     H      0.690460000000     0.667500000000     0.266940000000     0.0275366  
H120     H      0.660620000000     0.635500000000     0.205050000000     0.0493488  
H121     H      0.662790000000     0.634030000000     0.765280000000     0.0496356  
H122     H      0.691990000000     0.666300000000     0.703080000000     0.0279377  
H123     H      0.618070000000     0.632790000000     0.598850000000     0.0211774  
H124     H      0.586970000000     0.602400000000     0.660350000000     0.0482325  
H125     H      0.616790000000     0.629180000000     0.815970000000     0.049504   
H126     H      0.586360000000     0.596900000000     0.876640000000     0.0243865  
H127     H      0.552390000000     0.525250000000     0.769610000000     0.0242027  
H128     H      0.584490000000     0.555420000000     0.708600000000     0.0491158  
H129     H      0.635970000000     0.349480000000     0.154640000000     0.0495749  
H130     H      0.603200000000     0.379500000000     0.094240000000     0.0244337  
H131     H      0.532460000000     0.414210000000     0.202010000000     0.0246353  
H132     H      0.563270000000     0.382510000000     0.262970000000     0.0491033  
H133     H      0.610990000000     0.380010000000     0.310320000000     0.0485803  
H134     H      0.641610000000     0.348770000000     0.371490000000     0.021365   
H135     H      0.673210000000     0.274060000000     0.267180000000     0.0276168  
H136     H      0.640750000000     0.303480000000     0.205390000000     0.0495876  
H137     H      0.584330000000     0.402050000000     0.709040000000     0.0488242  
H138     H      0.552630000000     0.432670000000     0.769960000000     0.0241612  
H139     H      0.585150000000     0.360370000000     0.877000000000     0.0241706  
H140     H      0.615070000000     0.327580000000     0.816390000000     0.0494775  
H141     H      0.660980000000     0.321830000000     0.766180000000     0.0493953  
H142     H      0.690400000000     0.289850000000     0.703990000000     0.0274162  
H143     H      0.618080000000     0.325380000000     0.598880000000     0.0220808  
H144     H      0.586630000000     0.355440000000     0.660380000000     0.0486757  
H145     H      0.539020000000     0.753870000000     0.963120000000     0.0495975  
H146     H      0.538980000000     0.815770000000     0.964500000000     0.0244196  
H147     H      0.432890000000     0.816040000000     0.005390000000     0.0241748  
H148     H      0.432630000000     0.754280000000     0.007800000000     0.050471   
H149     H      0.538760000000     0.704660000000     0.008370000000     0.0504933  
H150     H      0.538360000000     0.642820000000     0.006950000000     0.0251733  
H151     H      0.432350000000     0.643080000000     0.965690000000     0.023469   
H152     H      0.432460000000     0.704890000000     0.963320000000     0.0496521  
H153     H      0.431560000000     0.204740000000     0.007400000000     0.0506204  
H154     H      0.431530000000     0.142930000000     0.004570000000     0.0246764  
H155     H      0.537600000000     0.142970000000     0.963580000000     0.0250835  
H156     H      0.537920000000     0.204800000000     0.962640000000     0.0498673  
H157     H      0.538070000000     0.253700000000     0.008630000000     0.0505948  
H158     H      0.538180000000     0.315580000000     0.007400000000     0.0256605  
H159     H      0.432220000000     0.316140000000     0.965840000000     0.0239766  
H160     H      0.431840000000     0.254380000000     0.963290000000     0.049869   
H161     H      0.385600000000     0.904830000000     0.261930000000     0.050309   
H162     H      0.418140000000     0.934590000000     0.200970000000     0.0251554  
H163     H      0.386160000000     0.861330000000     0.094890000000     0.0238332  
H164     H      0.355490000000     0.829390000000     0.155550000000     0.049411   
H165     H      0.382460000000     0.858860000000     0.311480000000     0.0498042  
H166     H      0.350860000000     0.828780000000     0.372710000000     0.0229376  
H167     H      0.279600000000     0.792170000000     0.266910000000     0.0285654  
H168     H      0.309140000000     0.824230000000     0.204890000000     0.0498602  
H169     H      0.311380000000     0.820880000000     0.766670000000     0.0490918  
H170     H      0.281520000000     0.788970000000     0.704670000000     0.0270159  
H171     H      0.353880000000     0.823780000000     0.599170000000     0.0280274  
H172     H      0.385670000000     0.853750000000     0.660340000000     0.0502056  
H173     H      0.388460000000     0.900530000000     0.708540000000     0.0498391  
H174     H      0.420240000000     0.931440000000     0.769150000000     0.0239684  
H175     H      0.387470000000     0.859820000000     0.876940000000     0.0254892  
H176     H      0.357440000000     0.826790000000     0.816700000000     0.0498023  
H177     H      0.333110000000     0.107600000000     0.154380000000     0.0499389  
H178     H      0.366250000000     0.077800000000     0.094050000000     0.0256319  
H179     H      0.436410000000     0.042750000000     0.202380000000     0.0240336  
H180     H      0.405170000000     0.074100000000     0.263240000000     0.0498289  
H181     H      0.356880000000     0.076420000000     0.309930000000     0.049924   
H182     H      0.326520000000     0.107950000000     0.371130000000     0.0251799  
H183     H      0.296730000000     0.183630000000     0.267140000000     0.027762   
H184     H      0.328850000000     0.153830000000     0.205360000000     0.0495412  
H185     H      0.407800000000     0.077570000000     0.708600000000     0.0496695  
H186     H      0.438350000000     0.045790000000     0.769590000000     0.0244422  
H187     H      0.367440000000     0.080450000000     0.877170000000     0.0239009  
H188     H      0.334820000000     0.110610000000     0.816570000000     0.0492814  
H189     H      0.360300000000     0.079690000000     0.661080000000     0.0488262  
H190     H      0.329810000000     0.110660000000     0.599520000000     0.0224731  
H191     H      0.297640000000     0.185580000000     0.703180000000     0.0277901  
H192     H      0.329990000000     0.156460000000     0.765380000000     0.0494141  
H193     H      0.589250000000     0.100310000000     0.310580000000     0.0498892  
H194     H      0.620810000000     0.130330000000     0.371810000000     0.0247608  
H195     H      0.691730000000     0.167610000000     0.266010000000     0.0284524  
H196     H      0.662160000000     0.135580000000     0.203860000000     0.0497536  
H197     H      0.615810000000     0.129930000000     0.154510000000     0.0494615  
H198     H      0.584970000000     0.097920000000     0.094050000000     0.0243226  
H199     H      0.553520000000     0.024610000000     0.200350000000     0.0252174  
H200     H      0.586220000000     0.054420000000     0.261060000000     0.0505058  
H201     H      0.607980000000     0.081340000000     0.660110000000     0.0498317  
H202     H      0.638380000000     0.112460000000     0.598690000000     0.0289589  
H203     H      0.671840000000     0.186350000000     0.703010000000     0.028596   
H204     H      0.639540000000     0.157110000000     0.765150000000     0.0495086  
H205     H      0.634830000000     0.110990000000     0.815670000000     0.0493547  
H206     H      0.602650000000     0.080460000000     0.876300000000     0.0241603  
H207     H      0.530870000000     0.046600000000     0.769360000000     0.0245274  
H208     H      0.560960000000     0.078820000000     0.708360000000     0.0499971  
H209     H      0.637000000000     0.850190000000     0.154180000000     0.0498927  
H210     H      0.604830000000     0.880890000000     0.093630000000     0.0256042  
H211     H      0.531920000000     0.912800000000     0.200210000000     0.0239959  
H212     H      0.561810000000     0.880290000000     0.260910000000     0.0502726  
H213     H      0.607650000000     0.877080000000     0.310340000000     0.0501515  
H214     H      0.637210000000     0.845200000000     0.371700000000     0.0254299  
H215     H      0.674110000000     0.774030000000     0.265990000000     0.0287168  
H216     H      0.642510000000     0.803900000000     0.203710000000     0.0497886  
H217     H      0.582750000000     0.902710000000     0.707460000000     0.0498994  
H218     H      0.550310000000     0.932830000000     0.768230000000     0.0240281  
H219     H      0.584330000000     0.861440000000     0.875590000000     0.0246918  
H220     H      0.615060000000     0.829230000000     0.815230000000     0.0494811  
H221     H      0.661460000000     0.824770000000     0.765210000000     0.0492614  
H222     H      0.691350000000     0.792750000000     0.703320000000     0.0283703  
H223     H      0.617770000000     0.825710000000     0.598280000000     0.0286137  
H224     H      0.586040000000     0.855750000000     0.659360000000     0.0500684  
H225     H      0.760330000000     0.532590000000     0.959920000000     0.0500746  
H226     H      0.822150000000     0.532350000000     0.962550000000     0.0251688  
H227     H      0.821710000000     0.426460000000     0.004470000000     0.0245782  
H228     H      0.759880000000     0.426430000000     0.005610000000     0.0504252  
H229     H      0.710670000000     0.426420000000     0.960470000000     0.0499956  
H230     H      0.648840000000     0.426640000000     0.962810000000     0.0250955  
H231     H      0.649110000000     0.532820000000     0.003210000000     0.0247157  
H232     H      0.710930000000     0.532910000000     0.004640000000     0.0503945  
H233     H      0.211090000000     0.532660000000     0.002730000000     0.0503076  
H234     H      0.149280000000     0.532580000000     0.001760000000     0.0241436  
H235     H      0.148800000000     0.426110000000     0.962930000000     0.024493   
H236     H      0.210630000000     0.425860000000     0.960070000000     0.0498054  
H237     H      0.260070000000     0.426150000000     0.004510000000     0.0504801  
H238     H      0.321880000000     0.426250000000     0.003180000000     0.0246237  
H239     H      0.322150000000     0.531950000000     0.960370000000     0.0250868  
H240     H      0.260320000000     0.532100000000     0.957840000000     0.0499322  
H241     H      0.810800000000     0.323240000000     0.204730000000     0.0494946  
H242     H      0.780610000000     0.291480000000     0.266540000000     0.028344   
H243     H      0.851200000000     0.328180000000     0.373140000000     0.025577   
H244     H      0.883400000000     0.357910000000     0.312280000000     0.0501024  
H245     H      0.887420000000     0.403650000000     0.262670000000     0.0502375  
H246     H      0.920110000000     0.433480000000     0.201930000000     0.0241093  
H247     H      0.888200000000     0.360470000000     0.095490000000     0.0255218  
H248     H      0.857370000000     0.328450000000     0.155910000000     0.0496171  
H249     H      0.834140000000     0.348810000000     0.816860000000     0.0496389  
H250     H      0.866320000000     0.379600000000     0.877410000000     0.0252573  
H251     H      0.937790000000     0.413510000000     0.770080000000     0.023576   
H252     H      0.907780000000     0.381130000000     0.709340000000     0.0497873  
H253     H      0.860810000000     0.378440000000     0.661250000000     0.0500059  
H254     H      0.831240000000     0.346780000000     0.599640000000     0.0285761  
H255     H      0.798240000000     0.272610000000     0.703840000000     0.0283339  
H256     H      0.829780000000     0.302460000000     0.766270000000     0.0492892  
H257     H      0.835070000000     0.610090000000     0.154630000000     0.0493426  
H258     H      0.867160000000     0.579470000000     0.093990000000     0.0242835  
H259     H      0.940640000000     0.548080000000     0.200110000000     0.0246647  
H260     H      0.910750000000     0.580550000000     0.260980000000     0.0502794  
H261     H      0.864860000000     0.583320000000     0.310600000000     0.0499346  
H262     H      0.834740000000     0.614710000000     0.371970000000     0.0249619  
H263     H      0.797310000000     0.685690000000     0.266360000000     0.027759   
H264     H      0.829400000000     0.656330000000     0.204130000000     0.0494507  
H265     H      0.883240000000     0.602010000000     0.660090000000     0.0500069  
H266     H      0.852090000000     0.632480000000     0.598790000000     0.0290193  
H267     H      0.778370000000     0.666020000000     0.703280000000     0.0277495  
H268     H      0.807680000000     0.633660000000     0.765350000000     0.0493386  
H269     H      0.853970000000     0.628920000000     0.815690000000     0.0494361  
H270     H      0.884630000000     0.596770000000     0.876200000000     0.0242588  
H271     H      0.918090000000     0.524830000000     0.769220000000     0.0251345  
H272     H      0.885750000000     0.554940000000     0.708330000000     0.0502896  
H273     H      0.141520000000     0.656670000000     0.204110000000     0.0494448  
H274     H      0.173910000000     0.685710000000     0.266360000000     0.0274187  
H275     H      0.142530000000     0.610130000000     0.369560000000     0.0301577  
H276     H      0.111980000000     0.579280000000     0.307930000000     0.0500756  
H277     H      0.136300000000     0.611010000000     0.152490000000     0.0497264  
H278     H      0.103220000000     0.581140000000     0.092070000000     0.0241687  
H279     H      0.032950000000     0.546210000000     0.200310000000     0.024557   
H280     H      0.064000000000     0.577660000000     0.261140000000     0.049893   
H281     H      0.062420000000     0.575930000000     0.706840000000     0.0500757  
H282     H      0.032420000000     0.543550000000     0.767800000000     0.0241347  
H283     H      0.104050000000     0.577630000000     0.874800000000     0.0253406  
H284     H      0.136120000000     0.608310000000     0.814250000000     0.0496736  
H285     H      0.140200000000     0.654820000000     0.764380000000     0.0494097  
H286     H      0.172040000000     0.684890000000     0.702540000000     0.0285581  
H287     H      0.139160000000     0.611410000000     0.597300000000     0.0293304  
H288     H      0.109250000000     0.579480000000     0.658390000000     0.0499554  
H289     H      0.089770000000     0.359700000000     0.311440000000     0.0498629  
H290     H      0.121800000000     0.330020000000     0.372450000000     0.0267342  
H291     H      0.191610000000     0.291780000000     0.265900000000     0.0278224  
H292     H      0.161650000000     0.323570000000     0.203880000000     0.0494046  
H293     H      0.085860000000     0.405020000000     0.261460000000     0.049751   
H294     H      0.052910000000     0.434600000000     0.200840000000     0.0240067  
H295     H      0.084210000000     0.361150000000     0.094650000000     0.0249127  
H296     H      0.115240000000     0.329280000000     0.155060000000     0.0495643  
H297     H      0.110830000000     0.379930000000     0.660430000000     0.0491854  
H298     H      0.141050000000     0.348550000000     0.599050000000     0.0227516  
H299     H      0.172830000000     0.273770000000     0.703140000000     0.0277144  
H300     H      0.140710000000     0.303310000000     0.765200000000     0.0493176  
H301     H      0.063420000000     0.382630000000     0.707960000000     0.0496145  
H302     H      0.032900000000     0.414510000000     0.768860000000     0.0237133  
H303     H      0.103560000000     0.379600000000     0.876610000000     0.0247666  
H304     H      0.136150000000     0.349330000000     0.816100000000     0.0495272  
H305     H      0.710400000000     0.033400000000     0.009990000000     0.0508262  
H306     H      0.648560000000     0.033070000000     0.007370000000     0.0259041  
H307     H      0.649160000000     0.927100000000     0.965890000000     0.0238139  
H308     H      0.710960000000     0.927150000000     0.964730000000     0.0495122  
H309     H      0.760030000000     0.927200000000     0.010070000000     0.0505749  
H310     H      0.821840000000     0.927280000000     0.007750000000     0.0251667  
H311     H      0.821800000000     0.033390000000     0.966960000000     0.0237798  
H312     H      0.759960000000     0.033600000000     0.965500000000     0.0495172  
H313     H      0.210740000000     0.925350000000     0.965090000000     0.0496176  
H314     H      0.148910000000     0.925650000000     0.966200000000     0.0237753  
H315     H      0.148900000000     0.031520000000     0.008210000000     0.0259113  
H316     H      0.210710000000     0.031480000000     0.010940000000     0.0508656  
H317     H      0.259850000000     0.031720000000     0.965910000000     0.0493673  
H318     H      0.321620000000     0.031680000000     0.967300000000     0.0233507  
H319     H      0.322060000000     0.925430000000     0.007350000000     0.025938   
H320     H      0.260180000000     0.925160000000     0.009770000000     0.0508859  
H321     H      0.038240000000     0.754270000000     0.007300000000     0.0506941  
H322     H      0.037980000000     0.816020000000     0.005120000000     0.0245994  
H323     H      0.931800000000     0.815830000000     0.964730000000     0.0250503  
H324     H      0.931760000000     0.753950000000     0.963090000000     0.0498613  
H325     H      0.038330000000     0.704960000000     0.962640000000     0.0498312  
H326     H      0.038470000000     0.643150000000     0.964880000000     0.0239455  
H327     H      0.932520000000     0.642800000000     0.006490000000     0.0259118  
H328     H      0.932110000000     0.704630000000     0.008070000000     0.0507805  
H329     H      0.038840000000     0.204880000000     0.962270000000     0.0497777  
H330     H      0.038700000000     0.143000000000     0.963720000000     0.0250157  
H331     H      0.932850000000     0.142910000000     0.005750000000     0.0245622  
H332     H      0.932720000000     0.204670000000     0.008150000000     0.0504923  
H333     H      0.932360000000     0.254100000000     0.963880000000     0.0496965  
H334     H      0.932360000000     0.315890000000     0.966320000000     0.0238225  
H335     H      0.038690000000     0.316000000000     0.005880000000     0.0251734  
H336     H      0.039010000000     0.254150000000     0.007270000000     0.0504166  
H337     H      0.909120000000     0.880770000000     0.261820000000     0.0493396  
H338     H      0.939070000000     0.913270000000     0.201060000000     0.023391   
H339     H      0.866220000000     0.881210000000     0.094490000000     0.0249109  
H340     H      0.834050000000     0.850550000000     0.154990000000     0.0497168  
H341     H      0.863260000000     0.877280000000     0.311220000000     0.0495659  
H342     H      0.833560000000     0.845310000000     0.372370000000     0.0267133  
H343     H      0.796910000000     0.774260000000     0.266310000000     0.027993   
H344     H      0.828660000000     0.804200000000     0.204270000000     0.049502   
H345     H      0.828010000000     0.804360000000     0.766200000000     0.0492424  
H346     H      0.795910000000     0.774800000000     0.704210000000     0.0273118  
H347     H      0.830970000000     0.847140000000     0.598820000000     0.0242156  
H348     H      0.861150000000     0.878690000000     0.660080000000     0.0488381  
H349     H      0.907910000000     0.881220000000     0.708560000000     0.0492166  
H350     H      0.938610000000     0.913040000000     0.769390000000     0.0247116  
H351     H      0.866460000000     0.880450000000     0.876620000000     0.0241587  
H352     H      0.833670000000     0.850430000000     0.816180000000     0.0493071  
H353     H      0.858460000000     0.077660000000     0.310020000000     0.0498014  
H354     H      0.828410000000     0.109400000000     0.371240000000     0.0250771  
H355     H      0.797780000000     0.184510000000     0.266930000000     0.0276919  
H356     H      0.829690000000     0.154550000000     0.205060000000     0.0495186  
H357     H      0.834040000000     0.108390000000     0.154250000000     0.0499441  
H358     H      0.866850000000     0.078230000000     0.093920000000     0.0255932  
H359     H      0.937020000000     0.042990000000     0.202090000000     0.0240421  
H360     H      0.906210000000     0.074750000000     0.262900000000     0.0497606  
H361     H      0.811300000000     0.137240000000     0.766130000000     0.0491485  
H362     H      0.781260000000     0.168840000000     0.704100000000     0.0272851  
H363     H      0.853380000000     0.133760000000     0.598430000000     0.023519   
H364     H      0.885390000000     0.104100000000     0.659710000000     0.0491529  
H365     H      0.888250000000     0.057540000000     0.708450000000     0.0490923  
H366     H      0.920130000000     0.026970000000     0.769240000000     0.0236838  
H367     H      0.887750000000     0.099270000000     0.876380000000     0.0253076  
H368     H      0.857620000000     0.131990000000     0.815870000000     0.0495671  
H369     H      0.085090000000     0.055430000000     0.261490000000     0.0502332  
H370     H      0.052990000000     0.025050000000     0.200670000000     0.0250367  
H371     H      0.085360000000     0.097500000000     0.093740000000     0.0243992  
H372     H      0.115640000000     0.130030000000     0.154210000000     0.0496     
H373     H      0.161660000000     0.135840000000     0.204210000000     0.0499103  
H374     H      0.190860000000     0.168220000000     0.266300000000     0.0287653  
H375     H      0.118750000000     0.132380000000     0.371480000000     0.0255396  
H376     H      0.087560000000     0.101960000000     0.310190000000     0.0497822  
H377     H      0.106440000000     0.082650000000     0.659610000000     0.0493824  
H378     H      0.136490000000     0.114140000000     0.598300000000     0.0284724  
H379     H      0.171430000000     0.186780000000     0.703380000000     0.0276271  
H380     H      0.139420000000     0.157180000000     0.765540000000     0.0491715  
H381     H      0.134790000000     0.110740000000     0.815330000000     0.0493607  
H382     H      0.103070000000     0.079700000000     0.875920000000     0.0240851  
H383     H      0.030470000000     0.046750000000     0.769520000000     0.0249073  
H384     H      0.060050000000     0.079530000000     0.708640000000     0.0497728  
H385     H      0.112690000000     0.881270000000     0.309700000000     0.0490886  
H386     H      0.142640000000     0.849660000000     0.371190000000     0.021382   
H387     H      0.174110000000     0.774770000000     0.267060000000     0.0271259  
H388     H      0.142300000000     0.804520000000     0.204970000000     0.0492956  
H389     H      0.137650000000     0.850440000000     0.153920000000     0.049855   
H390     H      0.104680000000     0.880300000000     0.093370000000     0.0255719  
H391     H      0.034270000000     0.915330000000     0.201360000000     0.0234333  
H392     H      0.065150000000     0.883870000000     0.262300000000     0.0489844  
H393     H      0.085440000000     0.854410000000     0.659280000000     0.0488055  
H394     H      0.117480000000     0.824620000000     0.598170000000     0.0222769  
H395     H      0.189130000000     0.789120000000     0.704180000000     0.0267075  
H396     H      0.159080000000     0.820860000000     0.766090000000     0.0489187  
H397     H      0.112880000000     0.826590000000     0.815720000000     0.049564   
H398     H      0.082790000000     0.859430000000     0.876080000000     0.0253906  
H399     H      0.050390000000     0.931540000000     0.768720000000     0.0235703  
H400     H      0.082280000000     0.900850000000     0.708010000000     0.0487478  
N1       N      0.405710000000     0.398870000000     0.142860000000    -0.191287   
N2       N      0.314200000000     0.306120000000     0.324010000000    -0.188078   
N3       N      0.405710000000     0.398950000000     0.827280000000    -0.191275   
N4       N      0.313820000000     0.306340000000     0.646350000000    -0.187914   
N5       N      0.311440000000     0.650550000000     0.323150000000    -0.188379   
N6       N      0.405450000000     0.560570000000     0.141780000000    -0.191022   
N7       N      0.405860000000     0.558980000000     0.826200000000    -0.19126    
N8       N      0.314620000000     0.652660000000     0.645680000000    -0.188649   
N9       N      0.564410000000     0.560620000000     0.143310000000    -0.191243   
N10      N      0.655430000000     0.654340000000     0.323850000000    -0.188628   
N11      N      0.657470000000     0.651840000000     0.646170000000    -0.188364   
N12      N      0.566820000000     0.558740000000     0.827780000000    -0.191198   
N13      N      0.565380000000     0.399320000000     0.143450000000    -0.191062   
N14      N      0.659650000000     0.308900000000     0.324140000000    -0.188442   
N15      N      0.566390000000     0.398900000000     0.828130000000    -0.191306   
N16      N      0.656760000000     0.305440000000     0.646620000000    -0.188726   
N17      N      0.485950000000     0.820570000000     0.984870000000    -0.193207   
N18      N      0.485340000000     0.638290000000     0.986290000000    -0.193218   
N19      N      0.484570000000     0.138280000000     0.984110000000    -0.193111   
N20      N      0.485240000000     0.320530000000     0.986620000000    -0.193034   
N21      N      0.404660000000     0.900300000000     0.143290000000    -0.191486   
N22      N      0.312770000000     0.808200000000     0.324560000000    -0.188528   
N23      N      0.315100000000     0.804260000000     0.647110000000    -0.18765    
N24      N      0.406290000000     0.898100000000     0.827700000000    -0.191009   
N25      N      0.403850000000     0.057890000000     0.143520000000    -0.191037   
N26      N      0.309450000000     0.148360000000     0.323970000000    -0.187712   
N27      N      0.405260000000     0.060590000000     0.828030000000    -0.191336   
N28      N      0.311460000000     0.150570000000     0.646530000000    -0.188669   
N29      N      0.658780000000     0.151210000000     0.323690000000    -0.188146   
N30      N      0.566670000000     0.058940000000     0.142570000000    -0.191284   
N31      N      0.657410000000     0.151860000000     0.646050000000    -0.187883   
N32      N      0.564430000000     0.060970000000     0.827480000000    -0.19126    
N33      N      0.566020000000     0.899360000000     0.142270000000    -0.191196   
N34      N      0.657840000000     0.807080000000     0.323630000000    -0.188033   
N35      N      0.564860000000     0.899550000000     0.826560000000    -0.191319   
N36      N      0.657080000000     0.806980000000     0.646040000000    -0.188032   
N37      N      0.826610000000     0.479410000000     0.983640000000    -0.193079   
N38      N      0.644300000000     0.479710000000     0.983140000000    -0.192971   
N39      N      0.144380000000     0.479330000000     0.982490000000    -0.193107   
N40      N      0.326680000000     0.479130000000     0.981930000000    -0.19309    
N41      N      0.813350000000     0.307600000000     0.324580000000    -0.187912   
N42      N      0.906610000000     0.399390000000     0.144040000000    -0.191119   
N43      N      0.904390000000     0.399110000000     0.828390000000    -0.191395   
N44      N      0.812560000000     0.307170000000     0.646920000000    -0.188081   
N45      N      0.906220000000     0.561210000000     0.142420000000    -0.191336   
N46      N      0.813760000000     0.652670000000     0.323940000000    -0.188187   
N47      N      0.812770000000     0.651550000000     0.646240000000    -0.18785    
N48      N      0.903920000000     0.558450000000     0.827360000000    -0.191213   
N49      N      0.160410000000     0.650420000000     0.322820000000    -0.187775   
N50      N      0.065700000000     0.561150000000     0.141540000000    -0.191185   
N51      N      0.065810000000     0.558150000000     0.825990000000    -0.191232   
N52      N      0.157860000000     0.650660000000     0.645150000000    -0.187683   
N53      N      0.159220000000     0.308640000000     0.323910000000    -0.187783   
N54      N      0.066050000000     0.400230000000     0.143120000000    -0.191227   
N55      N      0.159180000000     0.308670000000     0.646290000000    -0.188647   
N56      N      0.065820000000     0.399530000000     0.827400000000    -0.191219   
N57      N      0.644180000000     0.980080000000     0.986560000000    -0.193132   
N58      N      0.826490000000     0.980300000000     0.987160000000    -0.193102   
N59      N      0.144240000000     0.978620000000     0.987020000000    -0.19315    
N60      N      0.326500000000     0.978550000000     0.987290000000    -0.193207   
N61      N      0.984880000000     0.820600000000     0.984870000000    -0.19309    
N62      N      0.985510000000     0.638300000000     0.985670000000    -0.193146   
N63      N      0.985780000000     0.138280000000     0.984690000000    -0.193074   
N64      N      0.985520000000     0.320620000000     0.986090000000    -0.193115   
N65      N      0.905020000000     0.899710000000     0.143130000000    -0.191388   
N66      N      0.813010000000     0.807270000000     0.324090000000    -0.187808   
N67      N      0.811270000000     0.808420000000     0.646720000000    -0.188521   
N68      N      0.904960000000     0.899220000000     0.827660000000    -0.191257   
N69      N      0.810930000000     0.149530000000     0.323910000000    -0.187709   
N70      N      0.904410000000     0.058190000000     0.143320000000    -0.191087   
N71      N      0.814740000000     0.153430000000     0.646460000000    -0.188684   
N72      N      0.906370000000     0.060690000000     0.827480000000    -0.191258   
N73      N      0.066650000000     0.058910000000     0.142570000000    -0.191234   
N74      N      0.157290000000     0.152540000000     0.323680000000    -0.187979   
N75      N      0.156260000000     0.152920000000     0.646070000000    -0.188013   
N76      N      0.064460000000     0.060650000000     0.827370000000    -0.191324   
N77      N      0.160550000000     0.809680000000     0.323970000000    -0.188535   
N78      N      0.067030000000     0.900240000000     0.142680000000    -0.191131   
N79      N      0.155900000000     0.804720000000     0.646380000000    -0.188532   
N80      N      0.064170000000     0.897960000000     0.827070000000    -0.191055   
O1       O      0.052280000000     0.908680000000     0.906600000000    -0.375414   
O2       O      0.918420000000     0.050090000000     0.907010000000    -0.374929   
O3       O      0.946520000000     0.938370000000     0.848350000000    -0.374052   
O4       O      0.023620000000     0.020800000000     0.848250000000    -0.373969   
O5       O      0.055030000000     0.047620000000     0.906830000000    -0.377346   
O6       O      0.915200000000     0.911660000000     0.907130000000    -0.37702    
O7       O      0.945040000000     0.018740000000     0.848190000000    -0.375728   
O8       O      0.025530000000     0.939990000000     0.847850000000    -0.375623   
O9       O      0.985540000000     0.028370000000     0.936080000000    -0.508161   
O10      O      0.985090000000     0.930420000000     0.936080000000    -0.508294   
O11      O      0.936180000000     0.979640000000     0.935960000000    -0.653992   
O12      O      0.034560000000     0.979240000000     0.935700000000    -0.653492   
O13      O      0.915400000000     0.046650000000     0.063790000000    -0.374965   
O14      O      0.055900000000     0.911790000000     0.063110000000    -0.374341   
O15      O      0.877240000000     0.950840000000     0.988260000000    -0.378304   
O16      O      0.014980000000     0.087350000000     0.982330000000    -0.377991   
O17      O      0.093480000000     0.008100000000     0.988300000000    -0.378473   
O18      O      0.955640000000     0.871530000000     0.982960000000    -0.378931   
O19      O      0.946230000000     0.939150000000     0.122300000000    -0.375308   
O20      O      0.027120000000     0.017700000000     0.121910000000    -0.373969   
O21      O      0.915490000000     0.911680000000     0.063610000000    -0.375502   
O22      O      0.053940000000     0.048920000000     0.063140000000    -0.376628   
O23      O      0.877440000000     0.009370000000     0.984090000000    -0.380386   
O24      O      0.014200000000     0.871360000000     0.986790000000    -0.380857   
O25      O      0.093320000000     0.949580000000     0.983550000000    -0.380386   
O26      O      0.956470000000     0.087500000000     0.987140000000    -0.380863   
O27      O      0.946160000000     0.019240000000     0.122510000000    -0.37565    
O28      O      0.025350000000     0.939200000000     0.122010000000    -0.375083   
O29      O      0.034600000000     0.979190000000     0.034060000000    -0.507731   
O30      O      0.936600000000     0.979610000000     0.034530000000    -0.507786   
O31      O      0.985280000000     0.930200000000     0.034290000000    -0.653469   
O32      O      0.985700000000     0.028460000000     0.034510000000    -0.653098   
O33      O      0.014750000000     0.371490000000     0.987440000000    -0.37933    
O34      O      0.877490000000     0.508630000000     0.982050000000    -0.37836    
O35      O      0.918580000000     0.409590000000     0.064480000000    -0.375559   
O36      O      0.914890000000     0.411530000000     0.907870000000    -0.374692   
O37      O      0.945610000000     0.438570000000     0.848790000000    -0.375646   
O38      O      0.945670000000     0.440980000000     0.122870000000    -0.375407   
O39      O      0.877420000000     0.450130000000     0.987100000000    -0.380326   
O40      O      0.956170000000     0.371440000000     0.984400000000    -0.380085   
O41      O      0.936180000000     0.479280000000     0.936290000000    -0.50832    
O42      O      0.985590000000     0.430960000000     0.034730000000    -0.507446   
O43      O      0.936450000000     0.479770000000     0.034670000000    -0.653297   
O44      O      0.985280000000     0.430120000000     0.936270000000    -0.654567   
O45      O      0.956340000000     0.587430000000     0.987530000000    -0.378777   
O46      O      0.093490000000     0.450090000000     0.982500000000    -0.378925   
O47      O      0.947280000000     0.521600000000     0.121730000000    -0.373946   
O48      O      0.943540000000     0.517340000000     0.848160000000    -0.374061   
O49      O      0.024640000000     0.439030000000     0.848110000000    -0.374913   
O50      O      0.026360000000     0.441250000000     0.122310000000    -0.375489   
O51      O      0.055010000000     0.548720000000     0.062120000000    -0.375663   
O52      O      0.055490000000     0.546380000000     0.905600000000    -0.375779   
O53      O      0.024650000000     0.521400000000     0.121300000000    -0.373773   
O54      O      0.024300000000     0.519050000000     0.847240000000    -0.375615   
O55      O      0.915810000000     0.548140000000     0.062980000000    -0.376685   
O56      O      0.053650000000     0.410300000000     0.063640000000    -0.375679   
O57      O      0.054950000000     0.411230000000     0.906940000000    -0.37535    
O58      O      0.916930000000     0.548860000000     0.906790000000    -0.377116   
O59      O      0.014880000000     0.587490000000     0.983100000000    -0.380217   
O60      O      0.093600000000     0.508680000000     0.984800000000    -0.379663   
O61      O      0.034230000000     0.479240000000     0.935550000000    -0.50807    
O62      O      0.985710000000     0.528940000000     0.033590000000    -0.507803   
O63      O      0.034790000000     0.479740000000     0.034050000000    -0.653555   
O64      O      0.985340000000     0.528390000000     0.935420000000    -0.653538   
O65      O      0.377510000000     0.949460000000     0.988190000000    -0.379421   
O66      O      0.513930000000     0.087530000000     0.982260000000    -0.378887   
O67      O      0.414730000000     0.046220000000     0.063980000000    -0.375118   
O68      O      0.415660000000     0.048210000000     0.907530000000    -0.376222   
O69      O      0.446140000000     0.020770000000     0.848580000000    -0.374515   
O70      O      0.446090000000     0.019470000000     0.122650000000    -0.374991   
O71      O      0.455380000000     0.087350000000     0.986540000000    -0.380199   
O72      O      0.377170000000     0.008020000000     0.984880000000    -0.379837   
O73      O      0.484910000000     0.028730000000     0.936320000000    -0.508331   
O74      O      0.436470000000     0.979160000000     0.034600000000    -0.507966   
O75      O      0.485170000000     0.028640000000     0.034540000000    -0.653135   
O76      O      0.436080000000     0.979220000000     0.936200000000    -0.653519   
O77      O      0.593190000000     0.009150000000     0.988100000000    -0.378367   
O78      O      0.456640000000     0.871330000000     0.986590000000    -0.380346   
O79      O      0.527040000000     0.017840000000     0.121910000000    -0.374549   
O80      O      0.523530000000     0.021190000000     0.848290000000    -0.37369    
O81      O      0.445080000000     0.940070000000     0.848260000000    -0.375249   
O82      O      0.444400000000     0.941170000000     0.122340000000    -0.374106   
O83      O      0.555740000000     0.911830000000     0.062770000000    -0.374959   
O84      O      0.553000000000     0.910040000000     0.906070000000    -0.375602   
O85      O      0.524700000000     0.938730000000     0.121720000000    -0.375784   
O86      O      0.525420000000     0.940810000000     0.847520000000    -0.375596   
O87      O      0.553530000000     0.049370000000     0.063180000000    -0.376866   
O88      O      0.417340000000     0.909960000000     0.063800000000    -0.375662   
O89      O      0.418140000000     0.909050000000     0.907180000000    -0.376028   
O90      O      0.554600000000     0.048260000000     0.906980000000    -0.377079   
O91      O      0.593480000000     0.950640000000     0.983310000000    -0.380348   
O92      O      0.515190000000     0.871490000000     0.982940000000    -0.378677   
O93      O      0.485410000000     0.930730000000     0.935770000000    -0.508168   
O94      O      0.534430000000     0.979610000000     0.033930000000    -0.507818   
O95      O      0.485840000000     0.930320000000     0.034380000000    -0.653813   
O96      O      0.534390000000     0.979870000000     0.935570000000    -0.653987   
O97      O      0.377530000000     0.508450000000     0.980570000000    -0.378832   
O98      O      0.514690000000     0.371330000000     0.988770000000    -0.378076   
O99      O      0.415660000000     0.411620000000     0.906740000000    -0.375075   
O100     O      0.417990000000     0.409220000000     0.063350000000    -0.374956   
O101     O      0.444720000000     0.440510000000     0.122130000000    -0.376258   
O102     O      0.447060000000     0.438300000000     0.848030000000    -0.375505   
O103     O      0.456170000000     0.371430000000     0.983900000000    -0.380651   
O104     O      0.377520000000     0.449950000000     0.985730000000    -0.380742   
O105     O      0.485430000000     0.430450000000     0.034460000000    -0.507592   
O106     O      0.436730000000     0.479170000000     0.935460000000    -0.508264   
O107     O      0.485730000000     0.430060000000     0.936100000000    -0.654431   
O108     O      0.436270000000     0.479530000000     0.033970000000    -0.653219   
O109     O      0.593470000000     0.450370000000     0.982170000000    -0.378556   
O110     O      0.456030000000     0.587440000000     0.983990000000    -0.379448   
O111     O      0.527050000000     0.440230000000     0.848660000000    -0.374494   
O112     O      0.523920000000     0.438580000000     0.122470000000    -0.373524   
O113     O      0.446560000000     0.520910000000     0.121340000000    -0.373902   
O114     O      0.445310000000     0.517740000000     0.847280000000    -0.37483    
O115     O      0.554210000000     0.548730000000     0.907310000000    -0.376755   
O116     O      0.552830000000     0.549610000000     0.063810000000    -0.375126   
O117     O      0.526960000000     0.517910000000     0.848480000000    -0.374637   
O118     O      0.525390000000     0.518940000000     0.122550000000    -0.375636   
O119     O      0.553930000000     0.409240000000     0.907610000000    -0.376663   
O120     O      0.417660000000     0.548550000000     0.905720000000    -0.376521   
O121     O      0.415850000000     0.548060000000     0.062300000000    -0.376255   
O122     O      0.555120000000     0.411480000000     0.063930000000    -0.37728    
O123     O      0.593430000000     0.508930000000     0.986260000000    -0.380477   
O124     O      0.514570000000     0.587450000000     0.987720000000    -0.378921   
O125     O      0.485140000000     0.528510000000     0.034060000000    -0.507637   
O126     O      0.534700000000     0.479380000000     0.936560000000    -0.507905   
O127     O      0.485740000000     0.528360000000     0.935520000000    -0.653959   
O128     O      0.534550000000     0.479490000000     0.034700000000    -0.65329    
O129     O      0.170660000000     0.299980000000     0.566210000000    -0.366872   
O130     O      0.197380000000     0.266820000000     0.622960000000    -0.351905   
O131     O      0.167010000000     0.162780000000     0.403820000000    -0.360638   
O132     O      0.197860000000     0.192130000000     0.347030000000    -0.350947   
O133     O      0.167330000000     0.162010000000     0.566000000000    -0.363664   
O134     O      0.195780000000     0.193610000000     0.622880000000    -0.351107   
O135     O      0.169910000000     0.299070000000     0.403940000000    -0.356831   
O136     O      0.199030000000     0.268190000000     0.346970000000    -0.350506   
O137     O      0.125250000000     0.276800000000     0.484540000000    -0.339916   
O138     O      0.181600000000     0.343470000000     0.485000000000    -0.513652   
O139     O      0.123380000000     0.190440000000     0.485480000000    -0.513867   
O140     O      0.173380000000     0.118640000000     0.484710000000    -0.326249   
O141     O      0.180500000000     0.231170000000     0.533600000000    -0.470139   
O142     O      0.180900000000     0.231170000000     0.436850000000    -0.611527   
O143     O      0.304100000000     0.296090000000     0.404150000000    -0.360548   
O144     O      0.273320000000     0.266860000000     0.347200000000    -0.350888   
O145     O      0.299880000000     0.158980000000     0.566390000000    -0.366894   
O146     O      0.273100000000     0.192200000000     0.623030000000    -0.352257   
O147     O      0.297850000000     0.157070000000     0.404040000000    -0.355024   
O148     O      0.272940000000     0.191700000000     0.347400000000    -0.351502   
O149     O      0.303010000000     0.297050000000     0.566260000000    -0.363787   
O150     O      0.274530000000     0.265420000000     0.623080000000    -0.350806   
O151     O      0.347270000000     0.268510000000     0.486310000000    -0.513133   
O152     O      0.297310000000     0.340300000000     0.484910000000    -0.326165   
O153     O      0.345170000000     0.183090000000     0.482660000000    -0.341569   
O154     O      0.290100000000     0.115500000000     0.486670000000    -0.512022   
O155     O      0.289950000000     0.227730000000     0.437100000000    -0.611012   
O156     O      0.290030000000     0.227690000000     0.533720000000    -0.469311   
O157     O      0.237120000000     0.285360000000     0.433230000000    -0.47578    
O158     O      0.233550000000     0.173990000000     0.536480000000    -0.62444    
O159     O      0.236970000000     0.284900000000     0.536470000000    -0.624465   
O160     O      0.233570000000     0.173760000000     0.433090000000    -0.474946   
O161     O      0.166640000000     0.795330000000     0.566260000000    -0.362735   
O162     O      0.197620000000     0.766290000000     0.623180000000    -0.351492   
O163     O      0.171550000000     0.658890000000     0.403070000000    -0.359474   
O164     O      0.197870000000     0.692760000000     0.346780000000    -0.351736   
O165     O      0.169330000000     0.659790000000     0.565170000000    -0.361664   
O166     O      0.196380000000     0.692390000000     0.622270000000    -0.350653   
O167     O      0.171510000000     0.800550000000     0.404160000000    -0.361454   
O168     O      0.197810000000     0.767060000000     0.347390000000    -0.351826   
O169     O      0.124590000000     0.772790000000     0.481040000000    -0.337128   
O170     O      0.178410000000     0.841760000000     0.488630000000    -0.515486   
O171     O      0.125060000000     0.687480000000     0.482950000000    -0.512595   
O172     O      0.176280000000     0.616810000000     0.484950000000    -0.326061   
O173     O      0.180790000000     0.729300000000     0.533220000000    -0.460678   
O174     O      0.181140000000     0.729690000000     0.436700000000    -0.609169   
O175     O      0.302800000000     0.797780000000     0.404610000000    -0.361626   
O176     O      0.272560000000     0.768190000000     0.347450000000    -0.351232   
O177     O      0.304380000000     0.662810000000     0.565640000000    -0.363253   
O178     O      0.273030000000     0.691300000000     0.622750000000    -0.352112   
O179     O      0.300160000000     0.659040000000     0.403350000000    -0.361512   
O180     O      0.273890000000     0.692880000000     0.346950000000    -0.35215    
O181     O      0.304630000000     0.794900000000     0.566940000000    -0.358296   
O182     O      0.273360000000     0.765910000000     0.623610000000    -0.351093   
O183     O      0.346830000000     0.773350000000     0.484530000000    -0.512637   
O184     O      0.292930000000     0.841990000000     0.487620000000    -0.329919   
O185     O      0.346840000000     0.685880000000     0.481090000000    -0.340374   
O186     O      0.292860000000     0.616930000000     0.487060000000    -0.515705   
O187     O      0.290320000000     0.729320000000     0.436920000000    -0.610692   
O188     O      0.290280000000     0.728880000000     0.533760000000    -0.462313   
O189     O      0.236060000000     0.785370000000     0.433620000000    -0.475709   
O190     O      0.235530000000     0.673650000000     0.535970000000    -0.624091   
O191     O      0.235810000000     0.784690000000     0.536840000000    -0.624259   
O192     O      0.235610000000     0.673800000000     0.432530000000    -0.475162   
O193     O      0.804320000000     0.163120000000     0.566300000000    -0.365402   
O194     O      0.772940000000     0.191700000000     0.623250000000    -0.353182   
O195     O      0.802840000000     0.297590000000     0.404570000000    -0.360564   
O196     O      0.772780000000     0.267810000000     0.347400000000    -0.35048    
O197     O      0.801570000000     0.298390000000     0.566730000000    -0.363797   
O198     O      0.774290000000     0.265480000000     0.623250000000    -0.35109    
O199     O      0.799690000000     0.158500000000     0.403990000000    -0.354983   
O200     O      0.773880000000     0.192430000000     0.347300000000    -0.351386   
O201     O      0.846820000000     0.185000000000     0.480360000000    -0.340996   
O202     O      0.792740000000     0.116950000000     0.488160000000    -0.513178   
O203     O      0.846450000000     0.271790000000     0.486660000000    -0.513807   
O204     O      0.794130000000     0.341920000000     0.485310000000    -0.326031   
O205     O      0.790340000000     0.229080000000     0.533840000000    -0.469851   
O206     O      0.790220000000     0.229220000000     0.437160000000    -0.611607   
O207     O      0.668810000000     0.161210000000     0.403800000000    -0.361189   
O208     O      0.698940000000     0.191240000000     0.346970000000    -0.350424   
O209     O      0.666880000000     0.295660000000     0.566390000000    -0.362583   
O210     O      0.698160000000     0.266830000000     0.623210000000    -0.352387   
O211     O      0.671110000000     0.300100000000     0.404200000000    -0.362129   
O212     O      0.697330000000     0.266520000000     0.347460000000    -0.351925   
O213     O      0.669020000000     0.160390000000     0.565980000000    -0.362039   
O214     O      0.696330000000     0.193050000000     0.622750000000    -0.3509     
O215     O      0.624760000000     0.187130000000     0.485550000000    -0.511704   
O216     O      0.677000000000     0.116820000000     0.484630000000    -0.326563   
O217     O      0.624480000000     0.272560000000     0.481570000000    -0.337303   
O218     O      0.678260000000     0.341740000000     0.488090000000    -0.515832   
O219     O      0.681100000000     0.229630000000     0.436880000000    -0.609609   
O220     O      0.680780000000     0.229500000000     0.533630000000    -0.461382   
O221     O      0.735400000000     0.173670000000     0.433120000000    -0.475056   
O222     O      0.735640000000     0.284780000000     0.536720000000    -0.624266   
O223     O      0.735420000000     0.173760000000     0.536440000000    -0.624795   
O224     O      0.735900000000     0.285240000000     0.433440000000    -0.474883   
O225     O      0.801370000000     0.798280000000     0.566560000000    -0.364894   
O226     O      0.772760000000     0.766840000000     0.623420000000    -0.353007   
O227     O      0.667450000000     0.796750000000     0.403790000000    -0.36055    
O228     O      0.697530000000     0.766650000000     0.346990000000    -0.351167   
O229     O      0.666170000000     0.795810000000     0.566030000000    -0.364167   
O230     O      0.698630000000     0.768320000000     0.622900000000    -0.351269   
O231     O      0.803250000000     0.796810000000     0.404160000000    -0.356597   
O232     O      0.773290000000     0.766780000000     0.347170000000    -0.350609   
O233     O      0.780860000000     0.841110000000     0.482960000000    -0.339245   
O234     O      0.847780000000     0.785540000000     0.486890000000    -0.514833   
O235     O      0.692840000000     0.840500000000     0.485970000000    -0.514271   
O236     O      0.622740000000     0.788110000000     0.484480000000    -0.326266   
O237     O      0.735380000000     0.784330000000     0.533810000000    -0.47019    
O238     O      0.735500000000     0.784120000000     0.436990000000    -0.612467   
O239     O      0.803680000000     0.662680000000     0.404080000000    -0.360828   
O240     O      0.773590000000     0.692650000000     0.347170000000    -0.351104   
O241     O      0.666120000000     0.663280000000     0.566040000000    -0.362059   
O242     O      0.698560000000     0.690850000000     0.622840000000    -0.351102   
O243     O      0.664320000000     0.665590000000     0.403930000000    -0.363861   
O244     O      0.698290000000     0.691420000000     0.347310000000    -0.35221    
O245     O      0.804170000000     0.663100000000     0.566180000000    -0.362238   
O246     O      0.771550000000     0.690490000000     0.622930000000    -0.350013   
O247     O      0.777560000000     0.618750000000     0.485820000000    -0.511108   
O248     O      0.847810000000     0.670960000000     0.485070000000    -0.326295   
O249     O      0.693000000000     0.618730000000     0.483310000000    -0.337406   
O250     O      0.622890000000     0.671300000000     0.486260000000    -0.513708   
O251     O      0.735040000000     0.675000000000     0.436960000000    -0.609395   
O252     O      0.734950000000     0.674770000000     0.533550000000    -0.460157   
O253     O      0.791180000000     0.729450000000     0.433360000000    -0.475599   
O254     O      0.679760000000     0.729830000000     0.536440000000    -0.624221   
O255     O      0.790740000000     0.729460000000     0.536580000000    -0.624694   
O256     O      0.679550000000     0.729920000000     0.433020000000    -0.475244   
Zr1      Zr     0.985320000000     0.979380000000     0.887210000000     1.42352    
Zr2      Zr     0.936900000000     0.028290000000     0.985340000000     1.43327    
Zr3      Zr     0.033950000000     0.930480000000     0.984940000000     1.43319    
Zr4      Zr     0.936370000000     0.930980000000     0.985300000000     1.43246    
Zr5      Zr     0.034330000000     0.027970000000     0.985040000000     1.43291    
Zr6      Zr     0.985750000000     0.979250000000     0.083100000000     1.42475    
Zr7      Zr     0.936740000000     0.430770000000     0.985820000000     1.43277    
Zr8      Zr     0.936730000000     0.528230000000     0.984950000000     1.43303    
Zr9      Zr     0.034140000000     0.430800000000     0.985220000000     1.43272    
Zr10     Zr     0.985770000000     0.480310000000     0.083020000000     1.42376    
Zr11     Zr     0.984980000000     0.479040000000     0.887160000000     1.425      
Zr12     Zr     0.034340000000     0.528150000000     0.984260000000     1.43351    
Zr13     Zr     0.436250000000     0.027890000000     0.985550000000     1.43345    
Zr14     Zr     0.533830000000     0.028450000000     0.985090000000     1.43331    
Zr15     Zr     0.436990000000     0.930460000000     0.985510000000     1.4337     
Zr16     Zr     0.485610000000     0.979460000000     0.083110000000     1.42467    
Zr17     Zr     0.485080000000     0.979930000000     0.887210000000     1.42376    
Zr18     Zr     0.534270000000     0.930980000000     0.984540000000     1.43271    
Zr19     Zr     0.436850000000     0.430680000000     0.985040000000     1.43366    
Zr20     Zr     0.534300000000     0.430630000000     0.985590000000     1.43281    
Zr21     Zr     0.436750000000     0.528060000000     0.984230000000     1.43288    
Zr22     Zr     0.486010000000     0.479030000000     0.887150000000     1.42425    
Zr23     Zr     0.485260000000     0.479570000000     0.083060000000     1.42359    
Zr24     Zr     0.534080000000     0.528250000000     0.985520000000     1.43355    
Zr25     Zr     0.187620000000     0.281890000000     0.485040000000     1.29844    
Zr26     Zr     0.184440000000     0.180150000000     0.485000000000     1.29898    
Zr27     Zr     0.286210000000     0.278800000000     0.485210000000     1.29849    
Zr28     Zr     0.282930000000     0.176950000000     0.485120000000     1.29707    
Zr29     Zr     0.235240000000     0.229460000000     0.576550000000     1.26529    
Zr30     Zr     0.235500000000     0.229580000000     0.393720000000     1.26248    
Zr31     Zr     0.186570000000     0.780470000000     0.485160000000     1.29447    
Zr32     Zr     0.186310000000     0.678500000000     0.484380000000     1.29999    
Zr33     Zr     0.285260000000     0.779980000000     0.485620000000     1.30187    
Zr34     Zr     0.284830000000     0.678270000000     0.484620000000     1.29542    
Zr35     Zr     0.235410000000     0.729020000000     0.576450000000     1.26578    
Zr36     Zr     0.235750000000     0.729780000000     0.393680000000     1.26393    
Zr37     Zr     0.784710000000     0.178260000000     0.485070000000     1.29719    
Zr38     Zr     0.785090000000     0.280080000000     0.485520000000     1.29865    
Zr39     Zr     0.686100000000     0.178650000000     0.485000000000     1.30173    
Zr40     Zr     0.686460000000     0.280440000000     0.485170000000     1.29575    
Zr41     Zr     0.735510000000     0.229220000000     0.576570000000     1.26697    
Zr42     Zr     0.735710000000     0.229510000000     0.393770000000     1.26206    
Zr43     Zr     0.786290000000     0.778800000000     0.485270000000     1.29822    
Zr44     Zr     0.684590000000     0.779130000000     0.485040000000     1.29916    
Zr45     Zr     0.785990000000     0.680100000000     0.485170000000     1.30089    
Zr46     Zr     0.684070000000     0.680600000000     0.484970000000     1.29529    
Zr47     Zr     0.735220000000     0.729480000000     0.576580000000     1.2656     
Zr48     Zr     0.735430000000     0.729540000000     0.393750000000     1.26302    


