data_structure

_audit_creation_method RASPA-1.0
_audit_creation_date 2023-5-19
_audit_author_name 'Poobodin Mano'

_cell_length_a    27.9392
_cell_length_b    27.9392
_cell_length_c    27.9392
_cell_angle_alpha 90
_cell_angle_beta  90
_cell_angle_gamma 90
_cell_volume      21809.3

_symmetry_cell_setting          triclinic
_symmetry_space_group_name_Hall 'P 1'
_symmetry_space_group_name_H-M  'P 1'
_symmetry_Int_Tables_number     1

_symmetry_equiv_pos_as_xyz 'x,y,z'

loop_
_atom_site_label
_atom_site_type_symbol
_atom_site_fract_x
_atom_site_fract_y
_atom_site_fract_z
_atom_site_charge
C1       C      0.984250000000     0.107420000000     0.107520000000     0.349589   
C2       C      0.986690000000     0.863530000000     0.107520000000     0.34994    
C3       C      0.863440000000     0.986680000000     0.107420000000     0.349876   
C4       C      0.107510000000     0.984270000000     0.107430000000     0.349583   
C5       C      0.984280000000     0.863520000000     0.863450000000     0.34972    
C6       C      0.986680000000     0.107420000000     0.863450000000     0.349955   
C7       C      0.863540000000     0.863430000000     0.984260000000     0.349637   
C8       C      0.107430000000     0.863440000000     0.986700000000     0.349882   
C9       C      0.107420000000     0.107520000000     0.984280000000     0.349574   
C10      C      0.863520000000     0.107500000000     0.986680000000     0.349821   
C11      C      0.863450000000     0.984260000000     0.863530000000     0.349809   
C12      C      0.107520000000     0.986680000000     0.863540000000     0.349872   
C13      C      0.984260000000     0.363520000000     0.363450000000     0.349758   
C14      C      0.986700000000     0.607420000000     0.363450000000     0.350032   
C15      C      0.863450000000     0.484270000000     0.363530000000     0.349906   
C16      C      0.107520000000     0.486670000000     0.363540000000     0.349862   
C17      C      0.984280000000     0.607420000000     0.607520000000     0.349635   
C18      C      0.986670000000     0.363520000000     0.607520000000     0.349961   
C19      C      0.863550000000     0.607520000000     0.486690000000     0.350008   
C20      C      0.107440000000     0.607490000000     0.484280000000     0.349861   
C21      C      0.107410000000     0.363420000000     0.486700000000     0.349772   
C22      C      0.863520000000     0.363450000000     0.484270000000     0.350042   
C23      C      0.863440000000     0.486690000000     0.607430000000     0.34987    
C24      C      0.107510000000     0.484250000000     0.607430000000     0.349759   
C25      C      0.607510000000     0.986690000000     0.363530000000     0.349935   
C26      C      0.607520000000     0.984270000000     0.607420000000     0.349684   
C27      C      0.607410000000     0.107520000000     0.484260000000     0.349869   
C28      C      0.607440000000     0.863450000000     0.486680000000     0.349941   
C29      C      0.363450000000     0.986670000000     0.607430000000     0.3501     
C30      C      0.363440000000     0.984250000000     0.363540000000     0.349686   
C31      C      0.484260000000     0.107420000000     0.607520000000     0.349815   
C32      C      0.486710000000     0.863530000000     0.607520000000     0.34991    
C33      C      0.484280000000     0.863520000000     0.363450000000     0.349911   
C34      C      0.486670000000     0.107420000000     0.363440000000     0.349815   
C35      C      0.363520000000     0.107490000000     0.486700000000     0.349889   
C36      C      0.363550000000     0.863420000000     0.484280000000     0.34997    
C37      C      0.363520000000     0.363440000000     0.984280000000     0.349633   
C38      C      0.607420000000     0.363430000000     0.986690000000     0.349949   
C39      C      0.484260000000     0.363520000000     0.863450000000     0.349902   
C40      C      0.486680000000     0.363520000000     0.107520000000     0.349821   
C41      C      0.607430000000     0.607500000000     0.984270000000     0.349663   
C42      C      0.363540000000     0.607520000000     0.986700000000     0.349921   
C43      C      0.607510000000     0.486680000000     0.863530000000     0.349939   
C44      C      0.607520000000     0.484260000000     0.107420000000     0.349859   
C45      C      0.363440000000     0.486680000000     0.107430000000     0.34982    
C46      C      0.363440000000     0.484270000000     0.863540000000     0.349845   
C47      C      0.486700000000     0.607420000000     0.863450000000     0.349829   
C48      C      0.484280000000     0.607420000000     0.107520000000     0.349799   
C49      C      0.473690000000     0.301490000000     0.227600000000    -0.0659241  
C50      C      0.487620000000     0.254350000000     0.216660000000     0.022181   
C51      C      0.501380000000     0.243570000000     0.169440000000    -0.0658055  
C52      C      0.500910000000     0.278890000000     0.134030000000     0.0226913  
C53      C      0.487130000000     0.326020000000     0.145050000000    -0.105133   
C54      C      0.473690000000     0.336920000000     0.192310000000     0.022007   
C55      C      0.487620000000     0.216590000000     0.254300000000     0.0221663  
C56      C      0.501390000000     0.227370000000     0.301520000000    -0.0657974  
C57      C      0.500920000000     0.192050000000     0.336930000000     0.022635   
C58      C      0.487120000000     0.144920000000     0.325910000000    -0.105117   
C59      C      0.473670000000     0.134020000000     0.278660000000     0.0220163  
C60      C      0.473670000000     0.169460000000     0.243370000000    -0.0658875  
C61      C      0.497260000000     0.801490000000     0.243360000000    -0.0659525  
C62      C      0.483330000000     0.754350000000     0.254300000000     0.0221853  
C63      C      0.469570000000     0.743570000000     0.301520000000    -0.0658413  
C64      C      0.470040000000     0.778890000000     0.336930000000     0.0226717  
C65      C      0.483820000000     0.826020000000     0.325910000000    -0.105184   
C66      C      0.497270000000     0.836920000000     0.278660000000     0.0220143  
C67      C      0.483330000000     0.716590000000     0.216670000000     0.0221156  
C68      C      0.469560000000     0.727370000000     0.169440000000    -0.0657502  
C69      C      0.470030000000     0.692050000000     0.134030000000     0.0226162  
C70      C      0.483830000000     0.644920000000     0.145050000000    -0.105081   
C71      C      0.497280000000     0.634020000000     0.192310000000     0.0219292  
C72      C      0.497270000000     0.669460000000     0.227600000000    -0.0658657  
C73      C      0.501440000000     0.743570000000     0.669440000000    -0.0658599  
C74      C      0.487660000000     0.754350000000     0.716670000000     0.0221438  
C75      C      0.473730000000     0.801490000000     0.727600000000    -0.0659434  
C76      C      0.473720000000     0.836920000000     0.692310000000     0.0219856  
C77      C      0.487160000000     0.826020000000     0.645050000000    -0.10518    
C78      C      0.500960000000     0.778900000000     0.634030000000     0.0226725  
C79      C      0.487660000000     0.716590000000     0.754300000000     0.0221477  
C80      C      0.473730000000     0.669460000000     0.743360000000    -0.0659132  
C81      C      0.473710000000     0.634020000000     0.778650000000     0.0219422  
C82      C      0.487160000000     0.644920000000     0.825910000000    -0.10511    
C83      C      0.500950000000     0.692050000000     0.836930000000     0.0226181  
C84      C      0.501430000000     0.727370000000     0.801520000000    -0.0658257  
C85      C      0.497220000000     0.301490000000     0.743360000000    -0.0659126  
C86      C      0.483300000000     0.254350000000     0.754290000000     0.0221489  
C87      C      0.469540000000     0.243570000000     0.801520000000    -0.0658293  
C88      C      0.470020000000     0.278890000000     0.836930000000     0.0226619  
C89      C      0.483800000000     0.326020000000     0.825910000000    -0.105156   
C90      C      0.497230000000     0.336930000000     0.778650000000     0.021971   
C91      C      0.483300000000     0.216590000000     0.716660000000     0.0221623  
C92      C      0.469520000000     0.227370000000     0.669440000000    -0.0658397  
C93      C      0.470000000000     0.192050000000     0.634030000000     0.022651   
C94      C      0.483800000000     0.144920000000     0.645050000000    -0.105119   
C95      C      0.497260000000     0.134020000000     0.692300000000     0.0219869  
C96      C      0.497250000000     0.169460000000     0.727590000000    -0.0658845  
C97      C      0.727360000000     0.169450000000     0.469530000000    -0.0657931  
C98      C      0.716580000000     0.216670000000     0.483310000000     0.0221482  
C99      C      0.669440000000     0.227610000000     0.497240000000    -0.0659346  
C100     C      0.634010000000     0.192310000000     0.497250000000     0.0219916  
C101     C      0.644910000000     0.145060000000     0.483800000000    -0.105097   
C102     C      0.692040000000     0.134040000000     0.470010000000     0.0226473  
C103     C      0.754340000000     0.254310000000     0.483310000000     0.0221844  
C104     C      0.801480000000     0.243370000000     0.497240000000    -0.065969   
C105     C      0.836910000000     0.278660000000     0.497250000000     0.0220286  
C106     C      0.826010000000     0.325920000000     0.483810000000    -0.105226   
C107     C      0.778880000000     0.336940000000     0.470030000000     0.0226978  
C108     C      0.743560000000     0.301530000000     0.469550000000    -0.0658512  
C109     C      0.801520000000     0.727600000000     0.473710000000    -0.0659091  
C110     C      0.754380000000     0.716670000000     0.487640000000     0.0221469  
C111     C      0.743590000000     0.669450000000     0.501410000000    -0.0658783  
C112     C      0.778920000000     0.634040000000     0.500930000000     0.022692   
C113     C      0.826040000000     0.645060000000     0.487150000000    -0.105179   
C114     C      0.836950000000     0.692310000000     0.473700000000     0.0219721  
C115     C      0.716620000000     0.754310000000     0.487630000000     0.0221622  
C116     C      0.727400000000     0.801530000000     0.501400000000    -0.0658847  
C117     C      0.692070000000     0.836940000000     0.500920000000     0.0226821  
C118     C      0.644940000000     0.825920000000     0.487140000000    -0.105215   
C119     C      0.634040000000     0.778660000000     0.473690000000     0.0219953  
C120     C      0.669480000000     0.743370000000     0.473700000000    -0.0659329  
C121     C      0.227360000000     0.301490000000     0.501430000000    -0.0658126  
C122     C      0.216580000000     0.254270000000     0.487650000000     0.022162   
C123     C      0.169440000000     0.243340000000     0.473720000000    -0.0658755  
C124     C      0.134010000000     0.278630000000     0.473710000000     0.0220022  
C125     C      0.144910000000     0.325890000000     0.487150000000    -0.105096   
C126     C      0.192040000000     0.336900000000     0.500950000000     0.0226459  
C127     C      0.254340000000     0.216640000000     0.487650000000     0.0221596  
C128     C      0.301470000000     0.227570000000     0.473720000000    -0.0658967  
C129     C      0.336910000000     0.192280000000     0.473710000000     0.0219636  
C130     C      0.326010000000     0.145030000000     0.487150000000    -0.105037   
C131     C      0.278880000000     0.134000000000     0.500940000000     0.0226249  
C132     C      0.243560000000     0.169410000000     0.501420000000    -0.0657711  
C133     C      0.227400000000     0.669410000000     0.469570000000    -0.0657632  
C134     C      0.216620000000     0.716640000000     0.483330000000     0.0221139  
C135     C      0.169480000000     0.727570000000     0.497260000000    -0.0658675  
C136     C      0.134040000000     0.692280000000     0.497270000000     0.0219753  
C137     C      0.144940000000     0.645030000000     0.483830000000    -0.105071   
C138     C      0.192070000000     0.634000000000     0.470040000000     0.0225913  
C139     C      0.254380000000     0.754270000000     0.483330000000     0.0221846  
C140     C      0.301510000000     0.743340000000     0.497270000000    -0.065918   
C141     C      0.336950000000     0.778630000000     0.497280000000     0.021949   
C142     C      0.326040000000     0.825890000000     0.483820000000    -0.105169   
C143     C      0.278920000000     0.836900000000     0.470030000000     0.0227066  
C144     C      0.243600000000     0.801490000000     0.469550000000    -0.0658608  
C145     C      0.801520000000     0.469540000000     0.243580000000    -0.0658667  
C146     C      0.754300000000     0.483310000000     0.254360000000     0.0221846  
C147     C      0.743370000000     0.497260000000     0.301490000000    -0.0659297  
C148     C      0.778660000000     0.497270000000     0.336930000000     0.0219783  
C149     C      0.825910000000     0.483810000000     0.326030000000    -0.105159   
C150     C      0.836930000000     0.470020000000     0.278900000000     0.0226632  
C151     C      0.716670000000     0.483310000000     0.216600000000     0.0221214  
C152     C      0.727600000000     0.497230000000     0.169460000000    -0.0658562  
C153     C      0.692310000000     0.497240000000     0.134020000000     0.0219337  
C154     C      0.645050000000     0.483800000000     0.144930000000    -0.105065   
C155     C      0.634030000000     0.470020000000     0.192060000000     0.0226293  
C156     C      0.669440000000     0.469550000000     0.227380000000    -0.0658021  
C157     C      0.243360000000     0.473700000000     0.169470000000    -0.0658811  
C158     C      0.254300000000     0.487630000000     0.216610000000     0.0221785  
C159     C      0.301520000000     0.501400000000     0.227390000000    -0.0658281  
C160     C      0.336930000000     0.500920000000     0.192060000000     0.0226698  
C161     C      0.325910000000     0.487140000000     0.144930000000    -0.105123   
C162     C      0.278650000000     0.473700000000     0.134030000000     0.0219912  
C163     C      0.216670000000     0.487630000000     0.254360000000     0.022136   
C164     C      0.169440000000     0.501400000000     0.243590000000    -0.0657642  
C165     C      0.134030000000     0.500920000000     0.278910000000     0.0226784  
C166     C      0.145050000000     0.487130000000     0.326030000000    -0.105081   
C167     C      0.192310000000     0.473670000000     0.336930000000     0.0219553  
C168     C      0.227600000000     0.473690000000     0.301500000000    -0.0658802  
C169     C      0.227590000000     0.497220000000     0.669470000000    -0.0658377  
C170     C      0.216660000000     0.483300000000     0.716610000000     0.0221131  
C171     C      0.169430000000     0.469540000000     0.727390000000    -0.0657705  
C172     C      0.134020000000     0.470020000000     0.692060000000     0.022616   
C173     C      0.145050000000     0.483800000000     0.644940000000    -0.105004   
C174     C      0.192300000000     0.497230000000     0.634030000000     0.0219177  
C175     C      0.254290000000     0.483310000000     0.754360000000     0.0221545  
C176     C      0.301510000000     0.469530000000     0.743590000000    -0.0658155  
C177     C      0.336920000000     0.470010000000     0.778910000000     0.0226713  
C178     C      0.325910000000     0.483810000000     0.826030000000    -0.105134   
C179     C      0.278650000000     0.497270000000     0.836930000000     0.0219531  
C180     C      0.243360000000     0.497250000000     0.801500000000    -0.0659136  
C181     C      0.801520000000     0.501400000000     0.727380000000    -0.0658317  
C182     C      0.754290000000     0.487640000000     0.716600000000     0.0221302  
C183     C      0.743360000000     0.473720000000     0.669460000000    -0.0659181  
C184     C      0.778650000000     0.473710000000     0.634020000000     0.0219702  
C185     C      0.825900000000     0.487150000000     0.644930000000    -0.105142   
C186     C      0.836930000000     0.500930000000     0.692060000000     0.0226242  
C187     C      0.716660000000     0.487640000000     0.754360000000     0.0221635  
C188     C      0.727590000000     0.473690000000     0.801490000000    -0.0659374  
C189     C      0.692300000000     0.473680000000     0.836930000000     0.0219612  
C190     C      0.645040000000     0.487140000000     0.826030000000    -0.105201   
C191     C      0.634030000000     0.500940000000     0.778900000000     0.0226799  
C192     C      0.669440000000     0.501420000000     0.743580000000    -0.0658685  
C193     C      0.801500000000     0.743350000000     0.997240000000    -0.0664362  
C194     C      0.754370000000     0.754280000000     0.983310000000     0.0221465  
C195     C      0.743590000000     0.801500000000     0.969530000000    -0.0658659  
C196     C      0.778910000000     0.836910000000     0.970010000000     0.0225022  
C197     C      0.826040000000     0.825890000000     0.983800000000    -0.104962   
C198     C      0.836940000000     0.778640000000     0.997260000000     0.0212819  
C199     C      0.716610000000     0.716640000000     0.983310000000     0.0221756  
C200     C      0.727390000000     0.669420000000     0.969550000000    -0.0658786  
C201     C      0.692070000000     0.634010000000     0.970030000000     0.0225368  
C202     C      0.644940000000     0.645030000000     0.983810000000    -0.104983   
C203     C      0.634040000000     0.692290000000     0.997260000000     0.021317   
C204     C      0.669470000000     0.727580000000     0.997240000000    -0.0665017  
C205     C      0.743560000000     0.169420000000     0.001390000000    -0.0652125  
C206     C      0.754340000000     0.216640000000     0.987630000000     0.0216326  
C207     C      0.801480000000     0.227580000000     0.973710000000    -0.0659782  
C208     C      0.836920000000     0.192290000000     0.973700000000     0.0220472  
C209     C      0.826020000000     0.145030000000     0.987140000000    -0.105812   
C210     C      0.778890000000     0.134010000000     0.000920000000     0.0233538  
C211     C      0.716590000000     0.254280000000     0.987640000000     0.0216275  
C212     C      0.669450000000     0.243350000000     0.973700000000    -0.0659771  
C213     C      0.634020000000     0.278640000000     0.973690000000     0.0220948  
C214     C      0.644920000000     0.325890000000     0.987140000000    -0.105865   
C215     C      0.692050000000     0.336910000000     0.000940000000     0.0233321  
C216     C      0.727360000000     0.301500000000     0.001410000000    -0.0652393  
C217     C      0.227390000000     0.801530000000     0.001420000000    -0.0652624  
C218     C      0.216610000000     0.754300000000     0.987650000000     0.0216291  
C219     C      0.169480000000     0.743370000000     0.973720000000    -0.0659406  
C220     C      0.134040000000     0.778650000000     0.973700000000     0.022058   
C221     C      0.144940000000     0.825910000000     0.987150000000    -0.1058     
C222     C      0.192060000000     0.836930000000     0.000940000000     0.0233727  
C223     C      0.254370000000     0.716670000000     0.987650000000     0.0216296  
C224     C      0.301510000000     0.727600000000     0.973720000000    -0.0660043  
C225     C      0.336940000000     0.692310000000     0.973710000000     0.0220823  
C226     C      0.326040000000     0.645050000000     0.987160000000    -0.105903   
C227     C      0.278910000000     0.634030000000     0.000940000000     0.0233742  
C228     C      0.243590000000     0.669440000000     0.001420000000    -0.0652498  
C229     C      0.301480000000     0.243370000000     0.997260000000    -0.0664932  
C230     C      0.254350000000     0.254300000000     0.983330000000     0.0222251  
C231     C      0.243570000000     0.301520000000     0.969550000000    -0.0658789  
C232     C      0.278890000000     0.336930000000     0.970030000000     0.0225707  
C233     C      0.326020000000     0.325910000000     0.983820000000    -0.105029   
C234     C      0.336920000000     0.278660000000     0.997270000000     0.02137    
C235     C      0.216590000000     0.216670000000     0.983330000000     0.0221356  
C236     C      0.227370000000     0.169440000000     0.969560000000    -0.0657857  
C237     C      0.192050000000     0.134030000000     0.970030000000     0.0225086  
C238     C      0.144920000000     0.145050000000     0.983820000000    -0.104863   
C239     C      0.134010000000     0.192310000000     0.997260000000     0.021287   
C240     C      0.169450000000     0.227600000000     0.997250000000    -0.0663825  
C241     C      0.801530000000     0.969550000000     0.743570000000    -0.0659417  
C242     C      0.754310000000     0.983310000000     0.754350000000     0.0222083  
C243     C      0.743370000000     0.997230000000     0.801490000000    -0.0665484  
C244     C      0.778660000000     0.997240000000     0.836920000000     0.0213747  
C245     C      0.825920000000     0.983800000000     0.826020000000    -0.10507    
C246     C      0.836940000000     0.970030000000     0.778890000000     0.0226023  
C247     C      0.716670000000     0.983310000000     0.716590000000     0.022158   
C248     C      0.727600000000     0.997260000000     0.669460000000    -0.0664746  
C249     C      0.692310000000     0.997270000000     0.634020000000     0.0213206  
C250     C      0.645060000000     0.983810000000     0.644920000000    -0.105      
C251     C      0.634040000000     0.970010000000     0.692040000000     0.0225461  
C252     C      0.669450000000     0.969530000000     0.727370000000    -0.0658989  
C253     C      0.243370000000     0.973690000000     0.669480000000    -0.0659857  
C254     C      0.254300000000     0.987630000000     0.716610000000     0.0216307  
C255     C      0.301530000000     0.001400000000     0.727390000000    -0.0652485  
C256     C      0.336940000000     0.000920000000     0.692070000000     0.0233453  
C257     C      0.325920000000     0.987120000000     0.644940000000    -0.105898   
C258     C      0.278660000000     0.973680000000     0.634040000000     0.0220871  
C259     C      0.216670000000     0.987630000000     0.754370000000     0.0216378  
C260     C      0.169450000000     0.001400000000     0.743590000000    -0.0652222  
C261     C      0.134040000000     0.000930000000     0.778910000000     0.0233511  
C262     C      0.145060000000     0.987140000000     0.826040000000    -0.105806   
C263     C      0.192310000000     0.973700000000     0.836940000000     0.0221014  
C264     C      0.227600000000     0.973700000000     0.801510000000    -0.0660053  
C265     C      0.227580000000     0.997250000000     0.169480000000    -0.066427   
C266     C      0.216650000000     0.983310000000     0.216610000000     0.0221871  
C267     C      0.169430000000     0.969530000000     0.227390000000    -0.0658486  
C268     C      0.134020000000     0.970010000000     0.192060000000     0.022552   
C269     C      0.145040000000     0.983810000000     0.144940000000    -0.104855   
C270     C      0.192290000000     0.997260000000     0.134040000000     0.0213334  
C271     C      0.254280000000     0.983300000000     0.254370000000     0.0221939  
C272     C      0.301510000000     0.969540000000     0.243590000000    -0.0658755  
C273     C      0.336920000000     0.970010000000     0.278910000000     0.0225519  
C274     C      0.325900000000     0.983790000000     0.326040000000    -0.104993   
C275     C      0.278640000000     0.997230000000     0.336940000000     0.0213637  
C276     C      0.243350000000     0.997220000000     0.301510000000    -0.0664919  
C277     C      0.727590000000     0.973750000000     0.301490000000    -0.0659691  
C278     C      0.716650000000     0.987640000000     0.254350000000     0.0216524  
C279     C      0.669420000000     0.001370000000     0.243560000000    -0.0652769  
C280     C      0.634010000000     0.000900000000     0.278880000000     0.0233557  
C281     C      0.645040000000     0.987150000000     0.326020000000    -0.105851   
C282     C      0.692300000000     0.973730000000     0.336930000000     0.0220444  
C283     C      0.754280000000     0.987640000000     0.216590000000     0.0216122  
C284     C      0.801500000000     0.001450000000     0.227360000000    -0.0652424  
C285     C      0.836910000000     0.000970000000     0.192040000000     0.0233296  
C286     C      0.825900000000     0.987140000000     0.144920000000    -0.105782   
C287     C      0.778650000000     0.973650000000     0.134030000000     0.0220707  
C288     C      0.743360000000     0.973670000000     0.169460000000    -0.0659561  
C289     C      0.973690000000     0.169460000000     0.743360000000    -0.0660144  
C290     C      0.987630000000     0.216590000000     0.754300000000     0.0216697  
C291     C      0.001400000000     0.227370000000     0.801520000000    -0.0652761  
C292     C      0.000920000000     0.192050000000     0.836930000000     0.0233633  
C293     C      0.987140000000     0.144920000000     0.825910000000    -0.105843   
C294     C      0.973690000000     0.134020000000     0.778660000000     0.0221116  
C295     C      0.987620000000     0.254350000000     0.716670000000     0.0216129  
C296     C      0.001390000000     0.243570000000     0.669440000000    -0.0652403  
C297     C      0.000910000000     0.278890000000     0.634030000000     0.023368   
C298     C      0.987130000000     0.326020000000     0.645050000000    -0.105922   
C299     C      0.973680000000     0.336920000000     0.692310000000     0.022081   
C300     C      0.973690000000     0.301490000000     0.727600000000    -0.0659899  
C301     C      0.969570000000     0.743570000000     0.801520000000    -0.0659117  
C302     C      0.983340000000     0.754350000000     0.754300000000     0.0221796  
C303     C      0.997280000000     0.801490000000     0.743370000000    -0.0665226  
C304     C      0.997290000000     0.836920000000     0.778660000000     0.0213558  
C305     C      0.983830000000     0.826020000000     0.825910000000    -0.105026   
C306     C      0.970040000000     0.778890000000     0.836930000000     0.0225413  
C307     C      0.983340000000     0.716590000000     0.716670000000     0.0221753  
C308     C      0.997270000000     0.669460000000     0.727600000000    -0.0664869  
C309     C      0.997280000000     0.634020000000     0.692310000000     0.0213243  
C310     C      0.983830000000     0.644920000000     0.645050000000    -0.105024   
C311     C      0.970050000000     0.692050000000     0.634030000000     0.0225571  
C312     C      0.969570000000     0.727380000000     0.669440000000    -0.0659244  
C313     C      0.001420000000     0.727380000000     0.301520000000    -0.0653254  
C314     C      0.987660000000     0.716590000000     0.254300000000     0.0216808  
C315     C      0.973730000000     0.669450000000     0.243360000000    -0.066034   
C316     C      0.973720000000     0.634020000000     0.278650000000     0.0221278  
C317     C      0.987160000000     0.644920000000     0.325910000000    -0.105925   
C318     C      0.000940000000     0.692050000000     0.336930000000     0.0233902  
C319     C      0.987650000000     0.754350000000     0.216670000000     0.0216149  
C320     C      0.973710000000     0.801490000000     0.227600000000    -0.0660097  
C321     C      0.973700000000     0.836920000000     0.192310000000     0.0220691  
C322     C      0.987150000000     0.826020000000     0.145050000000    -0.105824   
C323     C      0.000950000000     0.778900000000     0.134030000000     0.0233666  
C324     C      0.001430000000     0.743570000000     0.169440000000    -0.0652291  
C325     C      0.969520000000     0.243570000000     0.301520000000    -0.0659209  
C326     C      0.983300000000     0.254350000000     0.254300000000     0.0222143  
C327     C      0.997230000000     0.301490000000     0.243360000000    -0.0665002  
C328     C      0.997250000000     0.336920000000     0.278660000000     0.0213776  
C329     C      0.983800000000     0.326020000000     0.325910000000    -0.105046   
C330     C      0.970000000000     0.278900000000     0.336930000000     0.022589   
C331     C      0.983300000000     0.216590000000     0.216660000000     0.0221854  
C332     C      0.997220000000     0.169460000000     0.227600000000    -0.0664375  
C333     C      0.997240000000     0.134020000000     0.192310000000     0.0213303  
C334     C      0.983800000000     0.144920000000     0.145050000000    -0.104894   
C335     C      0.970010000000     0.192050000000     0.134030000000     0.0225398  
C336     C      0.969530000000     0.227370000000     0.169440000000    -0.0658188  
H1       H      0.916930000000     0.916920000000     0.054030000000     0.209419   
H2       H      0.054020000000     0.054030000000     0.054040000000     0.209333   
H3       H      0.916930000000     0.054020000000     0.916930000000     0.209433   
H4       H      0.054040000000     0.916930000000     0.916930000000     0.209319   
H5       H      0.916930000000     0.554030000000     0.416930000000     0.209381   
H6       H      0.054020000000     0.416910000000     0.416930000000     0.209318   
H7       H      0.916920000000     0.416930000000     0.554030000000     0.209371   
H8       H      0.054040000000     0.554020000000     0.554030000000     0.209326   
H9       H      0.554030000000     0.054030000000     0.554030000000     0.209318   
H10      H      0.554030000000     0.916930000000     0.416930000000     0.209357   
H11      H      0.416920000000     0.054020000000     0.416930000000     0.209422   
H12      H      0.416940000000     0.916910000000     0.554040000000     0.209172   
H13      H      0.554020000000     0.416920000000     0.916930000000     0.209364   
H14      H      0.416920000000     0.416920000000     0.054030000000     0.209226   
H15      H      0.416930000000     0.554030000000     0.916930000000     0.209273   
H16      H      0.554030000000     0.554020000000     0.054030000000     0.209417   
H17      H      0.513140000000     0.207910000000     0.159840000000     0.0458817  
H18      H      0.511910000000     0.269300000000     0.098110000000     0.0346078  
H19      H      0.462470000000     0.372750000000     0.202000000000     0.0329715  
H20      H      0.462060000000     0.310980000000     0.263330000000     0.0452979  
H21      H      0.513160000000     0.263030000000     0.311120000000     0.0457875  
H22      H      0.511920000000     0.201630000000     0.372850000000     0.0344928  
H23      H      0.462440000000     0.098200000000     0.268960000000     0.0330955  
H24      H      0.462040000000     0.159970000000     0.207640000000     0.0453795  
H25      H      0.457810000000     0.707910000000     0.311130000000     0.0457957  
H26      H      0.459040000000     0.769310000000     0.372860000000     0.0344785  
H27      H      0.508480000000     0.872750000000     0.268960000000     0.0329274  
H28      H      0.508890000000     0.810980000000     0.207630000000     0.0453018  
H29      H      0.457790000000     0.763030000000     0.159840000000     0.0458076  
H30      H      0.459030000000     0.701630000000     0.098110000000     0.0346001  
H31      H      0.508500000000     0.598200000000     0.202000000000     0.0329857  
H32      H      0.508910000000     0.659970000000     0.263330000000     0.0452719  
H33      H      0.462090000000     0.810970000000     0.763330000000     0.0452385  
H34      H      0.462490000000     0.872740000000     0.702010000000     0.0329039  
H35      H      0.511960000000     0.769310000000     0.598110000000     0.0344749  
H36      H      0.513200000000     0.707920000000     0.659840000000     0.0458138  
H37      H      0.462100000000     0.659970000000     0.707630000000     0.0452847  
H38      H      0.462490000000     0.598200000000     0.768950000000     0.032979   
H39      H      0.511950000000     0.701630000000     0.872860000000     0.0344418  
H40      H      0.513190000000     0.763030000000     0.811130000000     0.0457396  
H41      H      0.457790000000     0.207910000000     0.811130000000     0.0458025  
H42      H      0.459030000000     0.269300000000     0.872860000000     0.0344531  
H43      H      0.508450000000     0.372750000000     0.768950000000     0.0329703  
H44      H      0.508850000000     0.310980000000     0.707630000000     0.0452861  
H45      H      0.457750000000     0.263020000000     0.659840000000     0.0458086  
H46      H      0.458990000000     0.201630000000     0.598110000000     0.0344842  
H47      H      0.508490000000     0.098200000000     0.702000000000     0.0330712  
H48      H      0.508890000000     0.159970000000     0.763320000000     0.0453098  
H49      H      0.659950000000     0.263330000000     0.508880000000     0.0453015  
H50      H      0.598190000000     0.202010000000     0.508480000000     0.0329681  
H51      H      0.701620000000     0.098120000000     0.459000000000     0.0345937  
H52      H      0.763020000000     0.159850000000     0.457770000000     0.0458206  
H53      H      0.810960000000     0.207640000000     0.508870000000     0.0453079  
H54      H      0.872730000000     0.268960000000     0.508480000000     0.0329235  
H55      H      0.769300000000     0.372870000000     0.459030000000     0.0344695  
H56      H      0.707900000000     0.311140000000     0.457790000000     0.0457981  
H57      H      0.707940000000     0.659850000000     0.513170000000     0.0458188  
H58      H      0.769330000000     0.598120000000     0.511940000000     0.0344694  
H59      H      0.872770000000     0.702010000000     0.462480000000     0.0329061  
H60      H      0.811000000000     0.763340000000     0.462070000000     0.0452165  
H61      H      0.763050000000     0.811140000000     0.513160000000     0.0457666  
H62      H      0.701660000000     0.872860000000     0.511930000000     0.0344187  
H63      H      0.598220000000     0.768960000000     0.462460000000     0.0329618  
H64      H      0.660000000000     0.707640000000     0.462060000000     0.0452891  
H65      H      0.159950000000     0.207610000000     0.462080000000     0.0453711  
H66      H      0.098190000000     0.268930000000     0.462480000000     0.0331021  
H67      H      0.201630000000     0.372820000000     0.511950000000     0.0344885  
H68      H      0.263020000000     0.311090000000     0.513190000000     0.0457943  
H69      H      0.310960000000     0.263300000000     0.462090000000     0.0452902  
H70      H      0.372730000000     0.201980000000     0.462490000000     0.0329863  
H71      H      0.269300000000     0.098080000000     0.511940000000     0.0346261  
H72      H      0.207900000000     0.159810000000     0.513170000000     0.0458778  
H73      H      0.159990000000     0.763300000000     0.508890000000     0.0453096  
H74      H      0.098220000000     0.701980000000     0.508490000000     0.0330774  
H75      H      0.201660000000     0.598080000000     0.459050000000     0.034501   
H76      H      0.263060000000     0.659800000000     0.457810000000     0.045776   
H77      H      0.311000000000     0.707610000000     0.508900000000     0.0452893  
H78      H      0.372770000000     0.768940000000     0.508500000000     0.0329763  
H79      H      0.269330000000     0.872820000000     0.459020000000     0.0344493  
H80      H      0.207940000000     0.811090000000     0.457790000000     0.0458116  
H81      H      0.707640000000     0.508900000000     0.310970000000     0.0452896  
H82      H      0.768960000000     0.508500000000     0.372740000000     0.0329659  
H83      H      0.872850000000     0.459010000000     0.269320000000     0.034453   
H84      H      0.811120000000     0.457770000000     0.207930000000     0.0458209  
H85      H      0.763330000000     0.508860000000     0.159970000000     0.0453064  
H86      H      0.702010000000     0.508450000000     0.098200000000     0.0330879  
H87      H      0.598110000000     0.459030000000     0.201650000000     0.0344904  
H88      H      0.659840000000     0.457800000000     0.263040000000     0.0457931  
H89      H      0.311130000000     0.513150000000     0.263050000000     0.0457993  
H90      H      0.372860000000     0.511920000000     0.201650000000     0.0344805  
H91      H      0.268960000000     0.462480000000     0.098210000000     0.0331091  
H92      H      0.207630000000     0.462070000000     0.159980000000     0.0453792  
H93      H      0.159840000000     0.513170000000     0.207930000000     0.0458675  
H94      H      0.098110000000     0.511930000000     0.269320000000     0.0346132  
H95      H      0.202000000000     0.462450000000     0.372760000000     0.0329849  
H96      H      0.263330000000     0.462050000000     0.310980000000     0.0452862  
H97      H      0.159830000000     0.457790000000     0.763050000000     0.0458201  
H98      H      0.098100000000     0.459020000000     0.701650000000     0.0346002  
H99      H      0.202000000000     0.508450000000     0.598210000000     0.0329942  
H100     H      0.263330000000     0.508850000000     0.659980000000     0.045257   
H101     H      0.311110000000     0.457750000000     0.707930000000     0.0457846  
H102     H      0.372850000000     0.459000000000     0.769330000000     0.0344803  
H103     H      0.268960000000     0.508500000000     0.872750000000     0.0329443  
H104     H      0.207630000000     0.508890000000     0.810980000000     0.0452917  
H105     H      0.707630000000     0.462100000000     0.659970000000     0.0452895  
H106     H      0.768950000000     0.462500000000     0.598200000000     0.0329717  
H107     H      0.872850000000     0.511920000000     0.701650000000     0.0344322  
H108     H      0.811120000000     0.513150000000     0.763040000000     0.0457481  
H109     H      0.763320000000     0.462050000000     0.810970000000     0.0452365  
H110     H      0.702000000000     0.462450000000     0.872740000000     0.0329095  
H111     H      0.598110000000     0.511950000000     0.769320000000     0.034472   
H112     H      0.659840000000     0.513190000000     0.707930000000     0.0458114  
H113     H      0.707930000000     0.811100000000     0.957770000000     0.0456625  
H114     H      0.769330000000     0.872830000000     0.959010000000     0.0344136  
H115     H      0.872760000000     0.768940000000     0.008480000000     0.033565   
H116     H      0.810990000000     0.707610000000     0.008880000000     0.0458432  
H117     H      0.763050000000     0.659810000000     0.957790000000     0.0456692  
H118     H      0.701650000000     0.598080000000     0.959030000000     0.034431   
H119     H      0.598220000000     0.701990000000     0.008480000000     0.0335965  
H120     H      0.659990000000     0.763310000000     0.008870000000     0.0458907  
H121     H      0.810970000000     0.263310000000     0.962080000000     0.0451335  
H122     H      0.872740000000     0.201990000000     0.962480000000     0.0328331  
H123     H      0.769300000000     0.098080000000     0.011910000000     0.0346533  
H124     H      0.707900000000     0.159810000000     0.013150000000     0.0459258  
H125     H      0.659960000000     0.207620000000     0.962060000000     0.045196   
H126     H      0.598200000000     0.268940000000     0.962460000000     0.0328798  
H127     H      0.701630000000     0.372830000000     0.011950000000     0.0345242  
H128     H      0.763020000000     0.311100000000     0.013180000000     0.0458549  
H129     H      0.159990000000     0.707640000000     0.962080000000     0.0452062  
H130     H      0.098220000000     0.768950000000     0.962480000000     0.0329946  
H131     H      0.201650000000     0.872860000000     0.011950000000     0.0344919  
H132     H      0.263050000000     0.811130000000     0.013180000000     0.0458583  
H133     H      0.310990000000     0.763330000000     0.962090000000     0.0451527  
H134     H      0.372760000000     0.702010000000     0.962490000000     0.0328528  
H135     H      0.269320000000     0.598110000000     0.011940000000     0.0345401  
H136     H      0.207930000000     0.659840000000     0.013180000000     0.0459175  
H137     H      0.207910000000     0.311130000000     0.957790000000     0.0457312  
H138     H      0.269310000000     0.372860000000     0.959030000000     0.0344526  
H139     H      0.372740000000     0.268960000000     0.008500000000     0.0336138  
H140     H      0.310970000000     0.207640000000     0.008900000000     0.0459483  
H141     H      0.263030000000     0.159840000000     0.957800000000     0.0457329  
H142     H      0.201630000000     0.098110000000     0.959040000000     0.0345763  
H143     H      0.098190000000     0.202000000000     0.008480000000     0.0337463  
H144     H      0.159960000000     0.263330000000     0.008890000000     0.0459412  
H145     H      0.707640000000     0.008850000000     0.810980000000     0.0458927  
H146     H      0.768960000000     0.008450000000     0.872750000000     0.033544   
H147     H      0.872870000000     0.959040000000     0.769300000000     0.034384   
H148     H      0.811140000000     0.957810000000     0.707910000000     0.045685   
H149     H      0.763330000000     0.008900000000     0.659970000000     0.0458748  
H150     H      0.702000000000     0.008510000000     0.598200000000     0.0335923  
H151     H      0.598120000000     0.959000000000     0.701630000000     0.0344242  
H152     H      0.659850000000     0.957760000000     0.763020000000     0.0456863  
H153     H      0.311130000000     0.013160000000     0.763050000000     0.0458617  
H154     H      0.372860000000     0.011920000000     0.701650000000     0.034522   
H155     H      0.268960000000     0.962450000000     0.598220000000     0.0328843  
H156     H      0.207640000000     0.962060000000     0.659990000000     0.0452028  
H157     H      0.159850000000     0.013160000000     0.707930000000     0.0459313  
H158     H      0.098120000000     0.011930000000     0.769320000000     0.0346525  
H159     H      0.202010000000     0.962470000000     0.872770000000     0.0328186  
H160     H      0.263330000000     0.962070000000     0.811000000000     0.0451402  
H161     H      0.159830000000     0.957760000000     0.263040000000     0.0457571  
H162     H      0.098100000000     0.959000000000     0.201650000000     0.0345651  
H163     H      0.201990000000     0.008500000000     0.098220000000     0.0337309  
H164     H      0.263310000000     0.008890000000     0.159990000000     0.0459512  
H165     H      0.311110000000     0.957790000000     0.207930000000     0.0457365  
H166     H      0.372840000000     0.959020000000     0.269320000000     0.0344576  
H167     H      0.268940000000     0.008450000000     0.372770000000     0.0336165  
H168     H      0.207620000000     0.008850000000     0.311000000000     0.0459518  
H169     H      0.659810000000     0.013100000000     0.207900000000     0.0459322  
H170     H      0.598080000000     0.011870000000     0.269290000000     0.0345447  
H171     H      0.702010000000     0.962550000000     0.372760000000     0.032869   
H172     H      0.763330000000     0.962140000000     0.310990000000     0.0451315  
H173     H      0.811090000000     0.013240000000     0.263010000000     0.045859   
H174     H      0.872830000000     0.012000000000     0.201620000000     0.0345026  
H175     H      0.768960000000     0.962400000000     0.098210000000     0.0329861  
H176     H      0.707640000000     0.962010000000     0.159980000000     0.0452175  
H177     H      0.013160000000     0.263030000000     0.811120000000     0.045863   
H178     H      0.011930000000     0.201640000000     0.872850000000     0.0344887  
H179     H      0.962460000000     0.098200000000     0.768960000000     0.0329774  
H180     H      0.962060000000     0.159970000000     0.707640000000     0.0452418  
H181     H      0.013150000000     0.207910000000     0.659840000000     0.0459148  
H182     H      0.011910000000     0.269310000000     0.598110000000     0.0345427  
H183     H      0.962460000000     0.372740000000     0.702010000000     0.0328479  
H184     H      0.962060000000     0.310980000000     0.763330000000     0.0451438  
H185     H      0.008910000000     0.810970000000     0.707640000000     0.045886   
H186     H      0.008510000000     0.872740000000     0.768960000000     0.0335468  
H187     H      0.959040000000     0.769310000000     0.872850000000     0.0343998  
H188     H      0.957800000000     0.707920000000     0.811120000000     0.0456842  
H189     H      0.008900000000     0.659960000000     0.763330000000     0.0458805  
H190     H      0.008490000000     0.598190000000     0.702010000000     0.0335895  
H191     H      0.959050000000     0.701640000000     0.598110000000     0.0344251  
H192     H      0.957820000000     0.763030000000     0.659840000000     0.0457011  
H193     H      0.962110000000     0.659960000000     0.207630000000     0.045219   
H194     H      0.962510000000     0.598190000000     0.268950000000     0.0328738  
H195     H      0.011930000000     0.701640000000     0.372860000000     0.0345041  
H196     H      0.013170000000     0.763030000000     0.311130000000     0.0458942  
H197     H      0.962070000000     0.810970000000     0.263320000000     0.0451542  
H198     H      0.962460000000     0.872740000000     0.202000000000     0.0328247  
H199     H      0.011960000000     0.769320000000     0.098110000000     0.0346516  
H200     H      0.013200000000     0.707920000000     0.159840000000     0.0459416  
H201     H      0.008870000000     0.310970000000     0.207630000000     0.045954   
H202     H      0.008470000000     0.372740000000     0.268960000000     0.0336114  
H203     H      0.959000000000     0.269310000000     0.372850000000     0.0344412  
H204     H      0.957760000000     0.207920000000     0.311120000000     0.0457557  
H205     H      0.008850000000     0.159970000000     0.263330000000     0.0459582  
H206     H      0.008460000000     0.098200000000     0.202010000000     0.0337317  
H207     H      0.959010000000     0.201640000000     0.098110000000     0.0345622  
H208     H      0.957770000000     0.263030000000     0.159830000000     0.0457357  
O1       O      0.983780000000     0.121350000000     0.063390000000    -0.366306   
O2       O      0.987180000000     0.849590000000     0.063390000000    -0.366469   
O3       O      0.907560000000     0.987160000000     0.121360000000    -0.366787   
O4       O      0.063380000000     0.983790000000     0.121370000000    -0.366275   
O5       O      0.121450000000     0.985410000000     0.063330000000    -0.36709    
O6       O      0.849500000000     0.985530000000     0.063310000000    -0.367051   
O7       O      0.985540000000     0.907630000000     0.121450000000    -0.367447   
O8       O      0.985400000000     0.063310000000     0.121450000000    -0.367044   
O9       O      0.033880000000     0.937080000000     0.033880000000    -0.504115   
O10      O      0.937070000000     0.033870000000     0.033880000000    -0.504037   
O11      O      0.936880000000     0.936870000000     0.034080000000    -0.648964   
O12      O      0.034070000000     0.034070000000     0.034080000000    -0.648028   
O13      O      0.983800000000     0.849590000000     0.907570000000    -0.366695   
O14      O      0.987160000000     0.121350000000     0.907570000000    -0.366824   
O15      O      0.849600000000     0.907550000000     0.983780000000    -0.366664   
O16      O      0.121370000000     0.907570000000     0.987180000000    -0.366716   
O17      O      0.121350000000     0.063390000000     0.983800000000    -0.366329   
O18      O      0.849590000000     0.063370000000     0.987160000000    -0.366431   
O19      O      0.907570000000     0.983780000000     0.849590000000    -0.366698   
O20      O      0.063400000000     0.987160000000     0.849600000000    -0.366464   
O21      O      0.849510000000     0.985400000000     0.907630000000    -0.367457   
O22      O      0.121460000000     0.985540000000     0.907650000000    -0.36733    
O23      O      0.907650000000     0.849490000000     0.985410000000    -0.367324   
O24      O      0.907630000000     0.121440000000     0.985540000000    -0.36733    
O25      O      0.063310000000     0.121450000000     0.985420000000    -0.36702    
O26      O      0.063330000000     0.849500000000     0.985550000000    -0.367131   
O27      O      0.985430000000     0.907630000000     0.849510000000    -0.367369   
O28      O      0.985540000000     0.063310000000     0.849510000000    -0.367097   
O29      O      0.033880000000     0.033870000000     0.937080000000    -0.504035   
O30      O      0.937080000000     0.937070000000     0.937080000000    -0.504948   
O31      O      0.936880000000     0.034070000000     0.936880000000    -0.649001   
O32      O      0.034080000000     0.936880000000     0.936880000000    -0.648858   
O33      O      0.983780000000     0.349590000000     0.407570000000    -0.366776   
O34      O      0.987180000000     0.621350000000     0.407570000000    -0.366918   
O35      O      0.907570000000     0.483790000000     0.349600000000    -0.366656   
O36      O      0.063390000000     0.487160000000     0.349600000000    -0.366279   
O37      O      0.121450000000     0.485520000000     0.407640000000    -0.367364   
O38      O      0.849510000000     0.485420000000     0.407640000000    -0.367307   
O39      O      0.985550000000     0.563310000000     0.349510000000    -0.367449   
O40      O      0.985410000000     0.407630000000     0.349510000000    -0.367439   
O41      O      0.033880000000     0.533870000000     0.437080000000    -0.504678   
O42      O      0.937070000000     0.437080000000     0.437080000000    -0.505101   
O43      O      0.936880000000     0.534080000000     0.436880000000    -0.64949    
O44      O      0.034070000000     0.436870000000     0.436880000000    -0.649073   
O45      O      0.983800000000     0.621360000000     0.563390000000    -0.366643   
O46      O      0.987150000000     0.349590000000     0.563390000000    -0.366833   
O47      O      0.849610000000     0.563400000000     0.487170000000    -0.36668    
O48      O      0.121370000000     0.563370000000     0.483800000000    -0.366647   
O49      O      0.121350000000     0.407550000000     0.487180000000    -0.366588   
O50      O      0.849590000000     0.407570000000     0.483790000000    -0.366708   
O51      O      0.907560000000     0.487170000000     0.621360000000    -0.366608   
O52      O      0.063390000000     0.483780000000     0.621370000000    -0.366305   
O53      O      0.849500000000     0.485550000000     0.563320000000    -0.367278   
O54      O      0.121450000000     0.485400000000     0.563320000000    -0.367262   
O55      O      0.907650000000     0.621450000000     0.485540000000    -0.367361   
O56      O      0.907620000000     0.349510000000     0.485420000000    -0.36735    
O57      O      0.063300000000     0.349490000000     0.485550000000    -0.366986   
O58      O      0.063330000000     0.621430000000     0.485420000000    -0.367007   
O59      O      0.985420000000     0.563310000000     0.621450000000    -0.367419   
O60      O      0.985530000000     0.407630000000     0.621450000000    -0.367465   
O61      O      0.033870000000     0.437070000000     0.533880000000    -0.504716   
O62      O      0.937080000000     0.533880000000     0.533880000000    -0.505061   
O63      O      0.936870000000     0.436880000000     0.534080000000    -0.649521   
O64      O      0.034080000000     0.534070000000     0.534080000000    -0.649039   
O65      O      0.563380000000     0.987160000000     0.349590000000    -0.366801   
O66      O      0.563400000000     0.983790000000     0.621360000000    -0.366713   
O67      O      0.621350000000     0.063400000000     0.483780000000    -0.366326   
O68      O      0.621370000000     0.907570000000     0.487160000000    -0.366651   
O69      O      0.563330000000     0.849510000000     0.485540000000    -0.367344   
O70      O      0.563300000000     0.121450000000     0.485410000000    -0.367324   
O71      O      0.621460000000     0.985420000000     0.563310000000    -0.367453   
O72      O      0.621450000000     0.985550000000     0.407630000000    -0.367453   
O73      O      0.533880000000     0.937080000000     0.533880000000    -0.505132   
O74      O      0.533870000000     0.033880000000     0.437080000000    -0.504644   
O75      O      0.534070000000     0.034080000000     0.534080000000    -0.649028   
O76      O      0.534080000000     0.936880000000     0.436880000000    -0.649518   
O77      O      0.407570000000     0.987150000000     0.621370000000    -0.366908   
O78      O      0.407560000000     0.983770000000     0.349600000000    -0.366729   
O79      O      0.483780000000     0.121350000000     0.563390000000    -0.366589   
O80      O      0.487190000000     0.849590000000     0.563390000000    -0.366612   
O81      O      0.483800000000     0.849590000000     0.407570000000    -0.366699   
O82      O      0.487150000000     0.121350000000     0.407570000000    -0.3666     
O83      O      0.349590000000     0.063370000000     0.487180000000    -0.366342   
O84      O      0.349600000000     0.907540000000     0.483800000000    -0.366592   
O85      O      0.407620000000     0.121440000000     0.485550000000    -0.367299   
O86      O      0.407650000000     0.849490000000     0.485420000000    -0.367386   
O87      O      0.485410000000     0.063310000000     0.621450000000    -0.36698    
O88      O      0.485530000000     0.063310000000     0.349510000000    -0.36698    
O89      O      0.485410000000     0.907630000000     0.349510000000    -0.367274   
O90      O      0.485550000000     0.907630000000     0.621450000000    -0.36736    
O91      O      0.349510000000     0.985520000000     0.563330000000    -0.367536   
O92      O      0.349500000000     0.985400000000     0.407650000000    -0.367393   
O93      O      0.437080000000     0.937070000000     0.437080000000    -0.505099   
O94      O      0.437080000000     0.033870000000     0.533880000000    -0.504716   
O95      O      0.436870000000     0.034070000000     0.436880000000    -0.649104   
O96      O      0.436890000000     0.936870000000     0.534080000000    -0.649396   
O97      O      0.349590000000     0.407570000000     0.983800000000    -0.36666    
O98      O      0.621360000000     0.407550000000     0.987170000000    -0.366887   
O99      O      0.483780000000     0.349590000000     0.907570000000    -0.366654   
O100     O      0.487160000000     0.349590000000     0.063390000000    -0.366282   
O101     O      0.485540000000     0.407630000000     0.121450000000    -0.367288   
O102     O      0.485410000000     0.407630000000     0.849510000000    -0.367317   
O103     O      0.563310000000     0.349490000000     0.985540000000    -0.367414   
O104     O      0.407630000000     0.349500000000     0.985420000000    -0.367401   
O105     O      0.533880000000     0.437070000000     0.033880000000    -0.504675   
O106     O      0.437070000000     0.437080000000     0.937080000000    -0.505097   
O107     O      0.534070000000     0.436870000000     0.936880000000    -0.649558   
O108     O      0.436880000000     0.436880000000     0.034080000000    -0.648975   
O109     O      0.621370000000     0.563370000000     0.983790000000    -0.366654   
O110     O      0.349600000000     0.563390000000     0.987170000000    -0.366817   
O111     O      0.563390000000     0.487160000000     0.849600000000    -0.366708   
O112     O      0.563390000000     0.483780000000     0.121360000000    -0.366599   
O113     O      0.407570000000     0.487160000000     0.121360000000    -0.36659    
O114     O      0.407560000000     0.483790000000     0.849600000000    -0.366616   
O115     O      0.487180000000     0.621360000000     0.907570000000    -0.366607   
O116     O      0.483800000000     0.621350000000     0.063390000000    -0.366283   
O117     O      0.485540000000     0.563310000000     0.849510000000    -0.367294   
O118     O      0.485420000000     0.563310000000     0.121450000000    -0.367287   
O119     O      0.621450000000     0.485530000000     0.907640000000    -0.367293   
O120     O      0.349500000000     0.485410000000     0.907650000000    -0.367278   
O121     O      0.349510000000     0.485540000000     0.063320000000    -0.366974   
O122     O      0.621450000000     0.485400000000     0.063320000000    -0.367055   
O123     O      0.563330000000     0.621440000000     0.985420000000    -0.367428   
O124     O      0.407650000000     0.621450000000     0.985550000000    -0.367476   
O125     O      0.437080000000     0.533870000000     0.033880000000    -0.504709   
O126     O      0.533880000000     0.533870000000     0.937080000000    -0.505069   
O127     O      0.436880000000     0.534070000000     0.936880000000    -0.649464   
O128     O      0.534080000000     0.534070000000     0.034080000000    -0.649096   
Zr1      Zr     0.985470000000     0.985470000000     0.082030000000     1.41993    
Zr2      Zr     0.985490000000     0.888920000000     0.985480000000     1.41976    
Zr3      Zr     0.985470000000     0.082020000000     0.985480000000     1.41989    
Zr4      Zr     0.888930000000     0.985460000000     0.985470000000     1.41982    
Zr5      Zr     0.082030000000     0.985480000000     0.985490000000     1.41992    
Zr6      Zr     0.985480000000     0.985470000000     0.888930000000     1.41983    
Zr7      Zr     0.985480000000     0.485470000000     0.388930000000     1.42082    
Zr8      Zr     0.985490000000     0.582020000000     0.485480000000     1.42087    
Zr9      Zr     0.985470000000     0.388920000000     0.485480000000     1.42077    
Zr10     Zr     0.888930000000     0.485480000000     0.485480000000     1.42175    
Zr11     Zr     0.082030000000     0.485460000000     0.485480000000     1.42173    
Zr12     Zr     0.985480000000     0.485470000000     0.582030000000     1.42075    
Zr13     Zr     0.582030000000     0.985480000000     0.485480000000     1.4207     
Zr14     Zr     0.485480000000     0.985470000000     0.582030000000     1.42084    
Zr15     Zr     0.485470000000     0.985470000000     0.388930000000     1.4208     
Zr16     Zr     0.485470000000     0.082020000000     0.485480000000     1.4219     
Zr17     Zr     0.485490000000     0.888920000000     0.485480000000     1.42172    
Zr18     Zr     0.388930000000     0.985460000000     0.485490000000     1.42074    
Zr19     Zr     0.485470000000     0.388920000000     0.985480000000     1.42073    
Zr20     Zr     0.582030000000     0.485460000000     0.985480000000     1.42077    
Zr21     Zr     0.388930000000     0.485480000000     0.985480000000     1.4209     
Zr22     Zr     0.485480000000     0.485470000000     0.888930000000     1.42174    
Zr23     Zr     0.485480000000     0.485470000000     0.082030000000     1.42185    
Zr24     Zr     0.485480000000     0.582020000000     0.985480000000     1.42076    


