data_structure

_audit_creation_method RASPA-1.0
_audit_creation_date 2023-5-19
_audit_author_name 'Poobodin Mano'

_cell_length_a    21.3669
_cell_length_b    21.3996
_cell_length_c    21.4042
_cell_angle_alpha 90
_cell_angle_beta  90
_cell_angle_gamma 90
_cell_volume      9786.92

_symmetry_cell_setting          triclinic
_symmetry_space_group_name_Hall 'P 1'
_symmetry_space_group_name_H-M  'P 1'
_symmetry_Int_Tables_number     1

_symmetry_equiv_pos_as_xyz 'x,y,z'

loop_
_atom_site_label
_atom_site_type_symbol
_atom_site_fract_x
_atom_site_fract_y
_atom_site_fract_z
_atom_site_charge
C1       C      0.996050000000     0.150860000000     0.153760000000     0.387743   
C2       C      0.981830000000     0.831780000000     0.150720000000     0.390974   
C3       C      0.829990000000     0.998520000000     0.148690000000     0.391095   
C4       C      0.149430000000     0.982040000000     0.155400000000     0.392621   
C5       C      0.003850000000     0.834560000000     0.832030000000     0.390233   
C6       C      0.990770000000     0.153750000000     0.834450000000     0.388513   
C7       C      0.833510000000     0.832970000000     0.980830000000     0.391484   
C8       C      0.152460000000     0.832670000000     0.003090000000     0.395104   
C9       C      0.153460000000     0.151730000000     0.999870000000     0.387098   
C10      C      0.833990000000     0.151300000000     0.002190000000     0.397379   
C11      C      0.836820000000     0.987000000000     0.830060000000     0.391745   
C12      C      0.156430000000     0.001420000000     0.836770000000     0.393973   
C13      C      0.980260000000     0.332990000000     0.334110000000     0.391719   
C14      C      0.997270000000     0.651820000000     0.331700000000     0.392516   
C15      C      0.829250000000     0.497520000000     0.335740000000     0.390735   
C16      C      0.148300000000     0.500400000000     0.328940000000     0.393275   
C17      C      0.989150000000     0.654060000000     0.650490000000     0.393004   
C18      C      0.004950000000     0.335350000000     0.652700000000     0.391467   
C19      C      0.833400000000     0.652990000000     0.500150000000     0.393506   
C20      C      0.152620000000     0.652810000000     0.482730000000     0.392835   
C21      C      0.152270000000     0.333530000000     0.483360000000     0.390015   
C22      C      0.833100000000     0.333770000000     0.502120000000     0.389942   
C23      C      0.837430000000     0.503790000000     0.654670000000     0.394282   
C24      C      0.156500000000     0.499720000000     0.647880000000     0.391344   
C25      C      0.648970000000     0.981640000000     0.329470000000     0.392646   
C26      C      0.329590000000     0.999770000000     0.336400000000     0.391865   
C27      C      0.481000000000     0.830980000000     0.333850000000     0.389935   
C28      C      0.495670000000     0.149800000000     0.331300000000     0.391196   
C29      C      0.337020000000     0.983900000000     0.655190000000     0.39177    
C30      C      0.656290000000     0.002010000000     0.647920000000     0.395131   
C31      C      0.333280000000     0.832670000000     0.503450000000     0.393027   
C32      C      0.333320000000     0.151750000000     0.498800000000     0.390513   
C33      C      0.652390000000     0.152010000000     0.484400000000     0.390305   
C34      C      0.652620000000     0.832930000000     0.481510000000     0.393694   
C35      C      0.505230000000     0.832990000000     0.652090000000     0.390756   
C36      C      0.489990000000     0.151900000000     0.650540000000     0.391625   
C37      C      0.333730000000     0.331620000000     0.978270000000     0.393361   
C38      C      0.652950000000     0.332080000000     0.989240000000     0.392137   
C39      C      0.503130000000     0.332910000000     0.831120000000     0.392093   
C40      C      0.483300000000     0.330170000000     0.149410000000     0.391481   
C41      C      0.652560000000     0.651140000000     0.997810000000     0.388435   
C42      C      0.333010000000     0.650710000000     0.986870000000     0.390238   
C43      C      0.655860000000     0.490060000000     0.835300000000     0.392134   
C44      C      0.648910000000     0.479740000000     0.154110000000     0.392821   
C45      C      0.329700000000     0.485970000000     0.147710000000     0.391222   
C46      C      0.336710000000     0.482170000000     0.828960000000     0.394085   
C47      C      0.491300000000     0.651750000000     0.833050000000     0.391177   
C48      C      0.493610000000     0.649230000000     0.152390000000     0.389872   
C49      C      0.507860000000     0.261390000000     0.302140000000    -0.0119682  
C50      C      0.510340000000     0.177980000000     0.219660000000    -0.0121956  
C51      C      0.465900000000     0.301270000000     0.260410000000    -0.0117381  
C52      C      0.468980000000     0.218420000000     0.177670000000    -0.0119267  
C53      C      0.464910000000     0.719300000000     0.305830000000    -0.0121044  
C54      C      0.463870000000     0.801750000000     0.222790000000    -0.0120802  
C55      C      0.505730000000     0.677740000000     0.264300000000    -0.0122916  
C56      C      0.505390000000     0.760920000000     0.181460000000    -0.012037   
C57      C      0.521120000000     0.721580000000     0.680740000000    -0.0119349  
C58      C      0.522030000000     0.804390000000     0.763440000000    -0.012065   
C59      C      0.478790000000     0.681040000000     0.721500000000    -0.0119787  
C60      C      0.480090000000     0.763800000000     0.804740000000    -0.0120206  
C61      C      0.519120000000     0.304510000000     0.719680000000    -0.0116785  
C62      C      0.518990000000     0.221610000000     0.802400000000    -0.0115081  
C63      C      0.477070000000     0.263760000000     0.678730000000    -0.0120631  
C64      C      0.476450000000     0.181050000000     0.761960000000    -0.0120675  
C65      C      0.764170000000     0.181660000000     0.471660000000    -0.0121902  
C66      C      0.680740000000     0.264130000000     0.472880000000    -0.0121309  
C67      C      0.804530000000     0.221830000000     0.514900000000    -0.0120154  
C68      C      0.721300000000     0.304390000000     0.515890000000    -0.0121123  
C69      C      0.681600000000     0.721140000000     0.468600000000    -0.0123406  
C70      C      0.764470000000     0.804070000000     0.467400000000    -0.012155   
C71      C      0.721500000000     0.682000000000     0.513120000000    -0.012239   
C72      C      0.804490000000     0.764920000000     0.511800000000    -0.0123532  
C73      C      0.221720000000     0.181310000000     0.513000000000    -0.0121304  
C74      C      0.305090000000     0.263830000000     0.510490000000    -0.0121087  
C75      C      0.180580000000     0.221560000000     0.470610000000    -0.0121228  
C76      C      0.263820000000     0.304110000000     0.468240000000    -0.0120605  
C77      C      0.304170000000     0.720800000000     0.515790000000    -0.0123062  
C78      C      0.221290000000     0.803700000000     0.516400000000    -0.0122263  
C79      C      0.264710000000     0.681770000000     0.470720000000    -0.0124231  
C80      C      0.181790000000     0.764740000000     0.471360000000    -0.0124536  
C81      C      0.716590000000     0.507060000000     0.307640000000    -0.0125247  
C82      C      0.799300000000     0.509870000000     0.224360000000    -0.0120792  
C83      C      0.676550000000     0.464480000000     0.266150000000    -0.0123405  
C84      C      0.760290000000     0.465620000000     0.184280000000    -0.0120612  
C85      C      0.175650000000     0.513770000000     0.216710000000    -0.0121945  
C86      C      0.259270000000     0.516640000000     0.298790000000    -0.011822   
C87      C      0.217490000000     0.472560000000     0.175710000000    -0.0125538  
C88      C      0.300090000000     0.473730000000     0.259120000000    -0.0120965  
C89      C      0.308990000000     0.467220000000     0.716960000000    -0.0122388  
C90      C      0.225280000000     0.468660000000     0.798960000000    -0.0117732  
C91      C      0.269140000000     0.510110000000     0.675670000000    -0.0124602  
C92      C      0.186590000000     0.513270000000     0.759050000000    -0.0120657  
C93      C      0.810000000000     0.519040000000     0.766630000000    -0.0121092  
C94      C      0.726660000000     0.522010000000     0.684420000000    -0.0116987  
C95      C      0.768150000000     0.477790000000     0.807520000000    -0.0123397  
C96      C      0.685610000000     0.479160000000     0.723860000000    -0.0120445  
C97      C      0.681150000000     0.763200000000     0.009170000000    -0.00754313 
C98      C      0.764560000000     0.680570000000     0.009030000000    -0.00754026 
C99      C      0.721670000000     0.803880000000     0.966500000000    -0.0151661  
C100     C      0.804740000000     0.721290000000     0.966120000000    -0.0151875  
C101     C      0.722280000000     0.179480000000     0.017770000000    -0.00951132 
C102     C      0.805090000000     0.262300000000     0.020290000000    -0.00970512 
C103     C      0.682000000000     0.220610000000     0.975570000000    -0.0142888  
C104     C      0.765060000000     0.303720000000     0.978090000000    -0.0142633  
C105     C      0.264040000000     0.803290000000     0.018220000000    -0.00974337 
C106     C      0.180750000000     0.720900000000     0.017820000000    -0.0100719  
C107     C      0.304610000000     0.762760000000     0.975560000000    -0.0145654  
C108     C      0.221120000000     0.680180000000     0.975110000000    -0.014437   
C109     C      0.221960000000     0.302430000000     0.963910000000    -0.0149088  
C110     C      0.304900000000     0.219750000000     0.965150000000    -0.0142325  
C111     C      0.182480000000     0.263850000000     0.009280000000    -0.00747338 
C112     C      0.265600000000     0.180920000000     0.010520000000    -0.0102457  
C113     C      0.768770000000     0.014630000000     0.675780000000    -0.0104483  
C114     C      0.686170000000     0.018870000000     0.758800000000    -0.0101242  
C115     C      0.809070000000     0.973000000000     0.717970000000    -0.0147041  
C116     C      0.725170000000     0.975620000000     0.799980000000    -0.0142893  
C117     C      0.225440000000     0.971700000000     0.685380000000    -0.0140358  
C118     C      0.309220000000     0.970380000000     0.767400000000    -0.01455    
C119     C      0.186490000000     0.015920000000     0.725600000000    -0.0104021  
C120     C      0.269020000000     0.012910000000     0.808810000000    -0.0106134  
C121     C      0.217000000000     0.010990000000     0.308490000000    -0.00810927 
C122     C      0.299550000000     0.013960000000     0.225210000000    -0.010185   
C123     C      0.177290000000     0.967690000000     0.267480000000    -0.0152923  
C124     C      0.260970000000     0.969100000000     0.185400000000    -0.0141366  
C125     C      0.799700000000     0.012230000000     0.259840000000    -0.0103121  
C126     C      0.717340000000     0.009610000000     0.176310000000    -0.00823466 
C127     C      0.760490000000     0.968000000000     0.299730000000    -0.0139382  
C128     C      0.677010000000     0.967020000000     0.217480000000    -0.0151385  
C129     C      0.020610000000     0.223950000000     0.681860000000    -0.00980918 
C130     C      0.020660000000     0.306920000000     0.764370000000    -0.0100285  
C131     C      0.978670000000     0.183020000000     0.722770000000    -0.0148874  
C132     C      0.979290000000     0.265820000000     0.805910000000    -0.0149035  
C133     C      0.976530000000     0.765910000000     0.679240000000    -0.0144627  
C134     C      0.975710000000     0.682940000000     0.762090000000    -0.0143232  
C135     C      0.018860000000     0.806380000000     0.720300000000    -0.00999516 
C136     C      0.018500000000     0.723150000000     0.802740000000    -0.0098389  
C137     C      0.965990000000     0.802690000000     0.261950000000    -0.0152505  
C138     C      0.967800000000     0.719940000000     0.179050000000    -0.0146527  
C139     C      0.009760000000     0.763380000000     0.302330000000    -0.00659618 
C140     C      0.010850000000     0.680020000000     0.219850000000    -0.00962963 
C141     C      0.006500000000     0.179700000000     0.265830000000    -0.00720184 
C142     C      0.008180000000     0.262600000000     0.182780000000    -0.00696156 
C143     C      0.964300000000     0.221240000000     0.306050000000    -0.0154444  
C144     C      0.965290000000     0.303410000000     0.222760000000    -0.0154502  
H1       H      0.900540000000     0.902660000000     0.079280000000     0.209154   
H2       H      0.081740000000     0.080030000000     0.084940000000     0.210247   
H3       H      0.904420000000     0.082740000000     0.902860000000     0.207374   
H4       H      0.085660000000     0.904170000000     0.904870000000     0.207443   
H5       H      0.901400000000     0.583640000000     0.404100000000     0.208672   
H6       H      0.079770000000     0.403790000000     0.400180000000     0.207642   
H7       H      0.905560000000     0.405150000000     0.585150000000     0.207008   
H8       H      0.084440000000     0.584550000000     0.578790000000     0.209278   
H9       H      0.399980000000     0.902330000000     0.405690000000     0.208678   
H10      H      0.580840000000     0.079640000000     0.400050000000     0.210633   
H11      H      0.586020000000     0.903340000000     0.579440000000     0.208237   
H12      H      0.405120000000     0.080510000000     0.583080000000     0.210867   
H13      H      0.584070000000     0.403390000000     0.903840000000     0.213401   
H14      H      0.401110000000     0.400620000000     0.077240000000     0.210771   
H15      H      0.404540000000     0.580200000000     0.900820000000     0.209546   
H16      H      0.580850000000     0.578970000000     0.083570000000     0.209128   
H17      H      0.560040000000     0.186560000000     0.206830000000     0.0384512  
H18      H      0.557260000000     0.275830000000     0.294350000000     0.03841    
H19      H      0.475180000000     0.351300000000     0.270730000000     0.040273   
H20      H      0.499960000000     0.128070000000     0.209780000000     0.0404309  
H21      H      0.481030000000     0.208510000000     0.128160000000     0.0401929  
H22      H      0.419430000000     0.204270000000     0.185010000000     0.0375888  
H23      H      0.496110000000     0.271520000000     0.351680000000     0.0401888  
H24      H      0.416330000000     0.291540000000     0.272940000000     0.0378057  
H25      H      0.414210000000     0.792840000000     0.210020000000     0.0380637  
H26      H      0.415140000000     0.706090000000     0.298250000000     0.0376717  
H27      H      0.493980000000     0.628130000000     0.274150000000     0.0398785  
H28      H      0.474110000000     0.851560000000     0.212340000000     0.0399941  
H29      H      0.493940000000     0.770980000000     0.131830000000     0.0405192  
H30      H      0.554970000000     0.774690000000     0.189290000000     0.0381335  
H31      H      0.476400000000     0.709370000000     0.355480000000     0.0399321  
H32      H      0.555480000000     0.685080000000     0.277660000000     0.0378131  
H33      H      0.571570000000     0.795380000000     0.776600000000     0.0377739  
H34      H      0.570510000000     0.707750000000     0.689610000000     0.0378188  
H35      H      0.489120000000     0.631170000000     0.711350000000     0.0398336  
H36      H      0.511890000000     0.854290000000     0.773570000000     0.0397338  
H37      H      0.491740000000     0.773420000000     0.854420000000     0.0399682  
H38      H      0.430670000000     0.778180000000     0.797060000000     0.037769   
H39      H      0.510690000000     0.711470000000     0.630900000000     0.0398653  
H40      H      0.429380000000     0.689990000000     0.707810000000     0.0379654  
H41      H      0.568340000000     0.207860000000     0.793180000000     0.0375645  
H42      H      0.568610000000     0.295730000000     0.706170000000     0.0376823  
H43      H      0.488150000000     0.273510000000     0.628960000000     0.040229   
H44      H      0.508920000000     0.211440000000     0.852310000000     0.0401229  
H45      H      0.486760000000     0.131180000000     0.772130000000     0.0401859  
H46      H      0.427100000000     0.190120000000     0.775800000000     0.0386149  
H47      H      0.508650000000     0.354380000000     0.709660000000     0.0401868  
H48      H      0.427630000000     0.277840000000     0.686910000000     0.038289   
H49      H      0.689450000000     0.278960000000     0.423840000000     0.0381962  
H50      H      0.778300000000     0.191360000000     0.422600000000     0.0383979  
H51      H      0.854560000000     0.212140000000     0.504630000000     0.0398839  
H52      H      0.630750000000     0.273670000000     0.483490000000     0.0402101  
H53      H      0.711160000000     0.354380000000     0.506160000000     0.03975    
H54      H      0.707300000000     0.294800000000     0.565010000000     0.0377367  
H55      H      0.774350000000     0.131680000000     0.481380000000     0.040229   
H56      H      0.795400000000     0.207130000000     0.563910000000     0.0376319  
H57      H      0.779110000000     0.793360000000     0.418700000000     0.0376451  
H58      H      0.691710000000     0.705790000000     0.419980000000     0.0381225  
H59      H      0.711640000000     0.631780000000     0.504350000000     0.0400955  
H60      H      0.774350000000     0.854300000000     0.476040000000     0.0396663  
H61      H      0.854620000000     0.774660000000     0.502050000000     0.0397575  
H62      H      0.794640000000     0.780390000000     0.560430000000     0.0383091  
H63      H      0.631460000000     0.711310000000     0.478140000000     0.0400045  
H64      H      0.706730000000     0.692670000000     0.561800000000     0.0382539  
H65      H      0.297210000000     0.278590000000     0.559690000000     0.0381686  
H66      H      0.208460000000     0.190840000000     0.562340000000     0.0384252  
H67      H      0.130750000000     0.211900000000     0.481880000000     0.0404558  
H68      H      0.354890000000     0.273410000000     0.499040000000     0.0402042  
H69      H      0.274150000000     0.354080000000     0.477850000000     0.0397577  
H70      H      0.276970000000     0.294580000000     0.418870000000     0.0377763  
H71      H      0.211420000000     0.131350000000     0.503290000000     0.0405016  
H72      H      0.188700000000     0.206910000000     0.421420000000     0.0380138  
H73      H      0.206090000000     0.792750000000     0.564880000000     0.0378942  
H74      H      0.293590000000     0.705250000000     0.564240000000     0.0380342  
H75      H      0.274430000000     0.631520000000     0.479450000000     0.0401505  
H76      H      0.211500000000     0.853970000000     0.507900000000     0.0399358  
H77      H      0.131550000000     0.774500000000     0.480480000000     0.0403477  
H78      H      0.192290000000     0.780370000000     0.422920000000     0.0385157  
H79      H      0.354420000000     0.711010000000     0.506700000000     0.0399421  
H80      H      0.280010000000     0.692570000000     0.422240000000     0.0383441  
H81      H      0.788360000000     0.558660000000     0.210160000000     0.0366293  
H82      H      0.701210000000     0.556130000000     0.300090000000     0.036294   
H83      H      0.626380000000     0.474320000000     0.275600000000     0.0400751  
H84      H      0.849570000000     0.501410000000     0.214110000000     0.0399592  
H85      H      0.770790000000     0.474950000000     0.134310000000     0.0403895  
H86      H      0.775160000000     0.416890000000     0.194640000000     0.0400537  
H87      H      0.707310000000     0.495180000000     0.357330000000     0.039838   
H88      H      0.685750000000     0.415210000000     0.279930000000     0.0395192  
H89      H      0.272300000000     0.565860000000     0.288280000000     0.040227   
H90      H      0.182660000000     0.563250000000     0.202450000000     0.0397791  
H91      H      0.207810000000     0.483620000000     0.125920000000     0.0403136  
H92      H      0.270010000000     0.507910000000     0.348820000000     0.0403506  
H93      H      0.349950000000     0.484300000000     0.269360000000     0.0402182  
H94      H      0.291100000000     0.424630000000     0.273610000000     0.0367171  
H95      H      0.125970000000     0.501610000000     0.207340000000     0.0403674  
H96      H      0.204170000000     0.422950000000     0.183650000000     0.0364678  
H97      H      0.210090000000     0.420060000000     0.788490000000     0.0400506  
H98      H      0.299520000000     0.418040000000     0.703070000000     0.039653   
H99      H      0.278370000000     0.498450000000     0.625930000000     0.0398466  
H100     H      0.214870000000     0.477940000000     0.848960000000     0.0402563  
H101     H      0.136270000000     0.505310000000     0.769420000000     0.0402392  
H102     H      0.198070000000     0.561960000000     0.773190000000     0.0366993  
H103     H      0.359200000000     0.476850000000     0.707490000000     0.0400674  
H104     H      0.284670000000     0.559100000000     0.683480000000     0.0362361  
H105     H      0.713890000000     0.571250000000     0.695160000000     0.0398945  
H106     H      0.802700000000     0.568540000000     0.780680000000     0.0393137  
H107     H      0.777700000000     0.488950000000     0.857320000000     0.0398861  
H108     H      0.715960000000     0.513610000000     0.634330000000     0.0403885  
H109     H      0.635820000000     0.490090000000     0.713620000000     0.0402283  
H110     H      0.694320000000     0.430070000000     0.709170000000     0.0368605  
H111     H      0.859690000000     0.507120000000     0.776210000000     0.0395714  
H112     H      0.781610000000     0.428200000000     0.799690000000     0.0362021  
H113     H      0.779050000000     0.689480000000     0.058140000000     0.0358156  
H114     H      0.689880000000     0.777580000000     0.058340000000     0.0359635  
H115     H      0.711580000000     0.853780000000     0.976710000000     0.0400714  
H116     H      0.774570000000     0.630730000000     0.998480000000     0.0375097  
H117     H      0.854830000000     0.711380000000     0.975940000000     0.0400679  
H118     H      0.795290000000     0.707310000000     0.916970000000     0.0402625  
H119     H      0.631160000000     0.772850000000     0.998660000000     0.0378168  
H120     H      0.707570000000     0.794790000000     0.917310000000     0.0399649  
H121     H      0.795200000000     0.275050000000     0.069700000000     0.0396967  
H122     H      0.708000000000     0.187880000000     0.067030000000     0.0396717  
H123     H      0.631970000000     0.210470000000     0.985430000000     0.040146   
H124     H      0.855200000000     0.272620000000     0.011050000000     0.0400802  
H125     H      0.774740000000     0.353360000000     0.989860000000     0.0400829  
H126     H      0.779900000000     0.296010000000     0.928880000000     0.0365815  
H127     H      0.712310000000     0.129710000000     0.006840000000     0.0408731  
H128     H      0.691300000000     0.207310000000     0.926200000000     0.0368334  
H129     H      0.189830000000     0.706820000000     0.067010000000     0.0399387  
H130     H      0.277810000000     0.793860000000     0.067440000000     0.0394878  
H131     H      0.354580000000     0.772360000000     0.986240000000     0.0400591  
H132     H      0.130710000000     0.711150000000     0.007640000000     0.0405771  
H133     H      0.211020000000     0.630340000000     0.985600000000     0.0398212  
H134     H      0.206910000000     0.689120000000     0.925930000000     0.03654    
H135     H      0.274340000000     0.853210000000     0.008350000000     0.0401543  
H136     H      0.296020000000     0.777260000000     0.926410000000     0.0366315  
H137     H      0.294130000000     0.204000000000     0.916810000000     0.0400483  
H138     H      0.206940000000     0.290870000000     0.915520000000     0.0404923  
H139     H      0.132240000000     0.273410000000     0.999930000000     0.038251   
H140     H      0.355190000000     0.210050000000     0.974060000000     0.0401169  
H141     H      0.275310000000     0.130640000000     0.001920000000     0.040596   
H142     H      0.281070000000     0.191900000000     0.058910000000     0.0366576  
H143     H      0.212020000000     0.352770000000     0.971800000000     0.0406557  
H144     H      0.192820000000     0.280020000000     0.057570000000     0.0361956  
H145     H      0.697270000000     0.067990000000     0.771670000000     0.037978   
H146     H      0.783670000000     0.063940000000     0.682710000000     0.0375015  
H147     H      0.859150000000     0.983280000000     0.708480000000     0.0396623  
H148     H      0.635880000000     0.010860000000     0.769290000000     0.0402363  
H149     H      0.714810000000     0.986500000000     0.849670000000     0.0397007  
H150     H      0.710060000000     0.926670000000     0.791130000000     0.0386748  
H151     H      0.778250000000     0.002180000000     0.626280000000     0.0398842  
H152     H      0.800450000000     0.923460000000     0.704830000000     0.0384794  
H153     H      0.300290000000     0.921110000000     0.781320000000     0.0380239  
H154     H      0.210300000000     0.922980000000     0.695390000000     0.0382945  
H155     H      0.136200000000     0.007790000000     0.715220000000     0.0406402  
H156     H      0.359350000000     0.980520000000     0.776790000000     0.0397642  
H157     H      0.278400000000     0.001290000000     0.858530000000     0.0398467  
H158     H      0.284190000000     0.062020000000     0.801070000000     0.0379937  
H159     H      0.215040000000     0.981390000000     0.635460000000     0.0402417  
H160     H      0.197740000000     0.064730000000     0.711720000000     0.0388566  
H161     H      0.287870000000     0.062560000000     0.210960000000     0.0385067  
H162     H      0.201420000000     0.059890000000     0.300220000000     0.0375862  
H163     H      0.127050000000     0.977200000000     0.276910000000     0.0406006  
H164     H      0.349910000000     0.006220000000     0.214880000000     0.0407362  
H165     H      0.271310000000     0.978310000000     0.135380000000     0.0404483  
H166     H      0.276380000000     0.920590000000     0.195950000000     0.0387387  
H167     H      0.207700000000     0.999760000000     0.358310000000     0.0377364  
H168     H      0.186950000000     0.918630000000     0.281650000000     0.0388606  
H169     H      0.702160000000     0.058710000000     0.184090000000     0.0378083  
H170     H      0.788610000000     0.061040000000     0.273880000000     0.0388892  
H171     H      0.770800000000     0.977320000000     0.349740000000     0.0400953  
H172     H      0.708120000000     0.998080000000     0.126540000000     0.0382124  
H173     H      0.626910000000     0.977100000000     0.207900000000     0.0402085  
H174     H      0.686090000000     0.917760000000     0.203600000000     0.0385376  
H175     H      0.849930000000     0.003840000000     0.270300000000     0.0404579  
H176     H      0.775430000000     0.919270000000     0.289470000000     0.038138   
H177     H      0.070330000000     0.298700000000     0.777600000000     0.0393308  
H178     H      0.070130000000     0.210530000000     0.690630000000     0.039578   
H179     H      0.989510000000     0.133260000000     0.712680000000     0.0402051  
H180     H      0.009810000000     0.356700000000     0.774350000000     0.0398737  
H181     H      0.991080000000     0.275540000000     0.855530000000     0.0395007  
H182     H      0.929700000000     0.279750000000     0.798480000000     0.0363268  
H183     H      0.010140000000     0.213680000000     0.632060000000     0.0403493  
H184     H      0.929170000000     0.191430000000     0.709060000000     0.0368224  
H185     H      0.926430000000     0.692220000000     0.776010000000     0.0402275  
H186     H      0.927170000000     0.780140000000     0.687590000000     0.0399517  
H187     H      0.008510000000     0.856310000000     0.710520000000     0.0399938  
H188     H      0.985700000000     0.632980000000     0.772080000000     0.0401424  
H189     H      0.008310000000     0.712890000000     0.852590000000     0.0398967  
H190     H      0.067760000000     0.709110000000     0.793510000000     0.0360276  
H191     H      0.987540000000     0.775790000000     0.629480000000     0.0396786  
H192     H      0.068270000000     0.797530000000     0.706560000000     0.0360038  
H193     H      0.918670000000     0.705220000000     0.187850000000     0.0365319  
H194     H      0.916960000000     0.792110000000     0.275840000000     0.0367668  
H195     H      0.999650000000     0.773480000000     0.352240000000     0.0373048  
H196     H      0.978480000000     0.710170000000     0.129200000000     0.0401306  
H197     H      0.001060000000     0.629960000000     0.210180000000     0.0409448  
H198     H      0.060070000000     0.689430000000     0.205770000000     0.0399955  
H199     H      0.974730000000     0.852850000000     0.272100000000     0.0400422  
H200     H      0.058710000000     0.778280000000     0.292800000000     0.0395371  
H201     H      0.057450000000     0.276530000000     0.192130000000     0.036169   
H202     H      0.055830000000     0.187430000000     0.280500000000     0.0361317  
H203     H      0.974290000000     0.211470000000     0.356050000000     0.0404501  
H204     H      0.998290000000     0.272530000000     0.132800000000     0.0381399  
H205     H      0.975520000000     0.353250000000     0.212410000000     0.0401268  
H206     H      0.916060000000     0.294160000000     0.208640000000     0.0403773  
H207     H      0.994800000000     0.130050000000     0.275550000000     0.037781   
H208     H      0.914830000000     0.207820000000     0.297000000000     0.0401206  
N1       N      0.475740000000     0.284990000000     0.194180000000    -0.165553   
N2       N      0.501360000000     0.194700000000     0.285960000000    -0.165376   
N3       N      0.498010000000     0.694310000000     0.197790000000    -0.165024   
N4       N      0.473000000000     0.785690000000     0.289160000000    -0.165132   
N5       N      0.486650000000     0.697180000000     0.788080000000    -0.165452   
N6       N      0.513360000000     0.788070000000     0.697060000000    -0.165479   
N7       N      0.484240000000     0.197220000000     0.695410000000    -0.165522   
N8       N      0.510960000000     0.288080000000     0.786080000000    -0.1656     
N9       N      0.788040000000     0.288460000000     0.508250000000    -0.165192   
N10      N      0.697390000000     0.197490000000     0.479180000000    -0.164954   
N11      N      0.788260000000     0.698150000000     0.506000000000    -0.165384   
N12      N      0.697750000000     0.787890000000     0.474690000000    -0.165487   
N13      N      0.197230000000     0.288180000000     0.477000000000    -0.165188   
N14      N      0.288350000000     0.197200000000     0.504370000000    -0.165011   
N15      N      0.197870000000     0.697930000000     0.477140000000    -0.165126   
N16      N      0.288110000000     0.787580000000     0.509810000000    -0.165388   
N17      N      0.693400000000     0.472400000000     0.199760000000    -0.165022   
N18      N      0.783450000000     0.501980000000     0.291010000000    -0.165412   
N19      N      0.284040000000     0.480580000000     0.192430000000    -0.165392   
N20      N      0.192710000000     0.507290000000     0.283190000000    -0.165052   
N21      N      0.202310000000     0.505090000000     0.692430000000    -0.165604   
N22      N      0.292180000000     0.475100000000     0.783370000000    -0.165289   
N23      N      0.701620000000     0.485630000000     0.790610000000    -0.165541   
N24      N      0.793090000000     0.512150000000     0.700180000000    -0.165405   
N25      N      0.788410000000     0.787820000000     0.973860000000    -0.164573   
N26      N      0.697700000000     0.696580000000     0.002310000000    -0.164749   
N27      N      0.698290000000     0.287080000000     0.984100000000    -0.165472   
N28      N      0.788890000000     0.196020000000     0.010710000000    -0.165956   
N29      N      0.287920000000     0.696150000000     0.982250000000    -0.165069   
N30      N      0.197350000000     0.787390000000     0.010310000000    -0.165436   
N31      N      0.198710000000     0.196980000000     0.004300000000    -0.164332   
N32      N      0.288750000000     0.286510000000     0.970970000000    -0.164983   
N33      N      0.792150000000     0.981530000000     0.784310000000    -0.164914   
N34      N      0.701980000000     0.009100000000     0.692430000000    -0.165659   
N35      N      0.202200000000     0.007470000000     0.792170000000    -0.165353   
N36      N      0.292400000000     0.977960000000     0.700950000000    -0.164764   
N37      N      0.194020000000     0.975240000000     0.201000000000    -0.164803   
N38      N      0.283840000000     0.005870000000     0.291850000000    -0.164853   
N39      N      0.693630000000     0.974700000000     0.283950000000    -0.164934   
N40      N      0.784120000000     0.004110000000     0.193190000000    -0.164502   
N41      N      0.986280000000     0.199210000000     0.789390000000    -0.164744   
N42      N      0.012410000000     0.290460000000     0.697940000000    -0.164968   
N43      N      0.010990000000     0.789770000000     0.786740000000    -0.165478   
N44      N      0.983470000000     0.699270000000     0.695570000000    -0.164927   
N45      N      0.003260000000     0.696640000000     0.286350000000    -0.16477    
N46      N      0.974300000000     0.786580000000     0.195460000000    -0.165362   
N47      N      0.972670000000     0.287620000000     0.289410000000    -0.164598   
N48      N      0.000450000000     0.196010000000     0.199100000000    -0.164433   
O1       O      0.995390000000     0.168680000000     0.096000000000    -0.374281   
O2       O      0.985100000000     0.814450000000     0.092880000000    -0.376838   
O3       O      0.887630000000     0.998030000000     0.167160000000    -0.377164   
O4       O      0.091240000000     0.983360000000     0.172090000000    -0.375721   
O5       O      0.168070000000     0.985910000000     0.098050000000    -0.375565   
O6       O      0.813240000000     0.994980000000     0.090710000000    -0.375786   
O7       O      0.983650000000     0.889430000000     0.168740000000    -0.37913    
O8       O      0.994370000000     0.092900000000     0.171070000000    -0.376082   
O9       O      0.054910000000     0.928860000000     0.056530000000    -0.503059   
O10      O      0.929240000000     0.054850000000     0.054850000000    -0.503991   
O11      O      0.928030000000     0.928480000000     0.054470000000    -0.648451   
O12      O      0.055720000000     0.054870000000     0.057970000000    -0.646505   
O13      O      0.000760000000     0.816470000000     0.889640000000    -0.376353   
O14      O      0.991760000000     0.170930000000     0.892460000000    -0.378743   
O15      O      0.815730000000     0.890660000000     0.984560000000    -0.377366   
O16      O      0.170450000000     0.890320000000     0.999830000000    -0.379265   
O17      O      0.171000000000     0.093860000000     0.000240000000    -0.374266   
O18      O      0.816180000000     0.093820000000     0.996680000000    -0.37959    
O19      O      0.895060000000     0.987460000000     0.813470000000    -0.375981   
O20      O      0.098760000000     0.000650000000     0.818380000000    -0.374797   
O21      O      0.818210000000     0.990360000000     0.887480000000    -0.378805   
O22      O      0.173290000000     0.997660000000     0.894740000000    -0.380234   
O23      O      0.891440000000     0.815460000000     0.982440000000    -0.376594   
O24      O      0.891870000000     0.168930000000     0.001510000000    -0.376181   
O25      O      0.095640000000     0.169380000000     0.996710000000    -0.375827   
O26      O      0.094520000000     0.815300000000     0.000990000000    -0.375094   
O27      O      0.002190000000     0.892520000000     0.814820000000    -0.375512   
O28      O      0.992170000000     0.096000000000     0.816530000000    -0.376817   
O29      O      0.058200000000     0.056330000000     0.931250000000    -0.504134   
O30      O      0.931450000000     0.929970000000     0.927860000000    -0.507423   
O31      O      0.930680000000     0.056650000000     0.928710000000    -0.647529   
O32      O      0.058260000000     0.929610000000     0.930170000000    -0.64775    
O33      O      0.983110000000     0.315750000000     0.391980000000    -0.375991   
O34      O      0.995470000000     0.669830000000     0.389350000000    -0.37918    
O35      O      0.886890000000     0.497010000000     0.317330000000    -0.37956    
O36      O      0.090200000000     0.496790000000     0.312300000000    -0.375457   
O37      O      0.166990000000     0.499190000000     0.386390000000    -0.375591   
O38      O      0.812530000000     0.495510000000     0.393850000000    -0.378363   
O39      O      0.994910000000     0.593980000000     0.314420000000    -0.376107   
O40      O      0.983170000000     0.390620000000     0.316000000000    -0.379084   
O41      O      0.054090000000     0.555540000000     0.427840000000    -0.5066     
O42      O      0.927850000000     0.429630000000     0.430480000000    -0.508464   
O43      O      0.927700000000     0.557140000000     0.429470000000    -0.649446   
O44      O      0.054730000000     0.429690000000     0.427390000000    -0.647817   
O45      O      0.990730000000     0.671500000000     0.592660000000    -0.378245   
O46      O      0.002070000000     0.317420000000     0.595010000000    -0.374412   
O47      O      0.815760000000     0.595190000000     0.499370000000    -0.375152   
O48      O      0.170170000000     0.594970000000     0.483710000000    -0.374816   
O49      O      0.170120000000     0.391320000000     0.484960000000    -0.379115   
O50      O      0.815330000000     0.391570000000     0.499930000000    -0.379065   
O51      O      0.895480000000     0.500070000000     0.671450000000    -0.376862   
O52      O      0.098900000000     0.499340000000     0.666390000000    -0.378964   
O53      O      0.818750000000     0.501430000000     0.597270000000    -0.375897   
O54      O      0.173190000000     0.496800000000     0.589810000000    -0.378779   
O55      O      0.891190000000     0.670650000000     0.496550000000    -0.378025   
O56      O      0.891050000000     0.316290000000     0.500200000000    -0.37751    
O57      O      0.094330000000     0.316110000000     0.485870000000    -0.376767   
O58      O      0.094840000000     0.670540000000     0.486050000000    -0.376767   
O59      O      0.991400000000     0.596350000000     0.668280000000    -0.375562   
O60      O      0.002230000000     0.393210000000     0.670070000000    -0.377533   
O61      O      0.057910000000     0.430380000000     0.554470000000    -0.507074   
O62      O      0.931720000000     0.556270000000     0.555340000000    -0.508176   
O63      O      0.930700000000     0.430610000000     0.557630000000    -0.649298   
O64      O      0.058100000000     0.557760000000     0.553770000000    -0.648576   
O65      O      0.667620000000     0.985800000000     0.386790000000    -0.37667    
O66      O      0.312810000000     0.996810000000     0.394420000000    -0.378935   
O67      O      0.482750000000     0.888700000000     0.315880000000    -0.377912   
O68      O      0.494860000000     0.091870000000     0.314050000000    -0.377908   
O69      O      0.493380000000     0.167780000000     0.388980000000    -0.377436   
O70      O      0.484610000000     0.813660000000     0.391670000000    -0.377418   
O71      O      0.387170000000     0.998170000000     0.317890000000    -0.378336   
O72      O      0.590740000000     0.982730000000     0.312810000000    -0.375731   
O73      O      0.428000000000     0.054840000000     0.429610000000    -0.50492    
O74      O      0.554680000000     0.928550000000     0.428250000000    -0.506823   
O75      O      0.427520000000     0.928030000000     0.430560000000    -0.651134   
O76      O      0.554910000000     0.054380000000     0.426990000000    -0.651665   
O77      O      0.318310000000     0.987100000000     0.597810000000    -0.376199   
O78      O      0.673110000000     0.998190000000     0.589950000000    -0.380717   
O79      O      0.391200000000     0.815090000000     0.502000000000    -0.37655    
O80      O      0.391150000000     0.169170000000     0.494580000000    -0.377056   
O81      O      0.594500000000     0.169380000000     0.488010000000    -0.376961   
O82      O      0.594740000000     0.815300000000     0.483310000000    -0.376739   
O83      O      0.503460000000     0.890840000000     0.669580000000    -0.378501   
O84      O      0.491100000000     0.094160000000     0.668430000000    -0.377916   
O85      O      0.501490000000     0.815160000000     0.594440000000    -0.378411   
O86      O      0.492070000000     0.169280000000     0.592690000000    -0.377361   
O87      O      0.315510000000     0.890350000000     0.499900000000    -0.377802   
O88      O      0.670390000000     0.890610000000     0.484940000000    -0.37791    
O89      O      0.670160000000     0.094180000000     0.484050000000    -0.377117   
O90      O      0.315600000000     0.093920000000     0.499630000000    -0.377115   
O91      O      0.395290000000     0.985100000000     0.671730000000    -0.375639   
O92      O      0.598690000000     0.000550000000     0.666390000000    -0.376988   
O93      O      0.557700000000     0.055710000000     0.553830000000    -0.505409   
O94      O      0.431220000000     0.929050000000     0.556800000000    -0.506735   
O95      O      0.558410000000     0.928740000000     0.554330000000    -0.650785   
O96      O      0.431040000000     0.054980000000     0.556390000000    -0.651685   
O97      O      0.315850000000     0.389270000000     0.981650000000    -0.37557    
O98      O      0.670470000000     0.389910000000     0.990690000000    -0.377271   
O99      O      0.499800000000     0.314930000000     0.888700000000    -0.376965   
O100     O      0.486790000000     0.312810000000     0.091600000000    -0.379358   
O101     O      0.484660000000     0.387860000000     0.167350000000    -0.376629   
O102     O      0.501370000000     0.390790000000     0.813760000000    -0.376198   
O103     O      0.595110000000     0.314300000000     0.990480000000    -0.37857    
O104     O      0.391610000000     0.314100000000     0.980710000000    -0.377632   
O105     O      0.555250000000     0.427180000000     0.055590000000    -0.503698   
O106     O      0.431110000000     0.428450000000     0.926800000000    -0.505377   
O107     O      0.557220000000     0.428980000000     0.929510000000    -0.655847   
O108     O      0.428130000000     0.427140000000     0.052680000000    -0.652811   
O109     O      0.670310000000     0.593300000000     0.997590000000    -0.379741   
O110     O      0.315300000000     0.592860000000     0.986580000000    -0.379932   
O111     O      0.598250000000     0.491720000000     0.816860000000    -0.378612   
O112     O      0.590740000000     0.481770000000     0.170770000000    -0.376307   
O113     O      0.387310000000     0.488230000000     0.166110000000    -0.377791   
O114     O      0.394860000000     0.484000000000     0.812270000000    -0.377142   
O115     O      0.492500000000     0.668990000000     0.890990000000    -0.37673    
O116     O      0.492610000000     0.667140000000     0.094650000000    -0.375957   
O117     O      0.492450000000     0.594040000000     0.815100000000    -0.381044   
O118     O      0.492550000000     0.591250000000     0.169640000000    -0.378785   
O119     O      0.672640000000     0.490520000000     0.893380000000    -0.377232   
O120     O      0.318050000000     0.485610000000     0.886330000000    -0.376355   
O121     O      0.312880000000     0.486800000000     0.089620000000    -0.378494   
O122     O      0.667590000000     0.483330000000     0.096730000000    -0.376734   
O123     O      0.594590000000     0.668540000000     0.995360000000    -0.37663    
O124     O      0.390910000000     0.668190000000     0.989730000000    -0.377261   
O125     O      0.427790000000     0.554140000000     0.054340000000    -0.504534   
O126     O      0.557870000000     0.555380000000     0.929480000000    -0.505524   
O127     O      0.430490000000     0.554580000000     0.927410000000    -0.653471   
O128     O      0.554960000000     0.553690000000     0.056590000000    -0.652732   
Zr1      Zr     0.990640000000     0.991420000000     0.118740000000     1.42182    
Zr2      Zr     0.993080000000     0.866550000000     0.991750000000     1.41728    
Zr3      Zr     0.993680000000     0.118320000000     0.993840000000     1.41809    
Zr4      Zr     0.867200000000     0.992350000000     0.990290000000     1.42076    
Zr5      Zr     0.119490000000     0.992260000000     0.995300000000     1.41875    
Zr6      Zr     0.995810000000     0.993760000000     0.866950000000     1.41436    
Zr7      Zr     0.989690000000     0.492800000000     0.366250000000     1.42333    
Zr8      Zr     0.992960000000     0.619480000000     0.491330000000     1.42819    
Zr9      Zr     0.992740000000     0.367630000000     0.493010000000     1.41638    
Zr10     Zr     0.866700000000     0.493440000000     0.494480000000     1.42531    
Zr11     Zr     0.118980000000     0.493310000000     0.489390000000     1.42578    
Zr12     Zr     0.996020000000     0.494420000000     0.617830000000     1.4226     
Zr13     Zr     0.490020000000     0.990760000000     0.366240000000     1.42363    
Zr14     Zr     0.366740000000     0.992000000000     0.494880000000     1.42335    
Zr15     Zr     0.619130000000     0.992220000000     0.489490000000     1.42348    
Zr16     Zr     0.492960000000     0.865900000000     0.492740000000     1.42587    
Zr17     Zr     0.492860000000     0.117550000000     0.491260000000     1.42679    
Zr18     Zr     0.495920000000     0.992190000000     0.617940000000     1.42277    
Zr19     Zr     0.493090000000     0.365180000000     0.990520000000     1.42882    
Zr20     Zr     0.619000000000     0.491400000000     0.993990000000     1.42384    
Zr21     Zr     0.366680000000     0.490970000000     0.989050000000     1.42342    
Zr22     Zr     0.495350000000     0.492040000000     0.865680000000     1.43016    
Zr23     Zr     0.490220000000     0.489870000000     0.117230000000     1.42497    
Zr24     Zr     0.492770000000     0.616850000000     0.992400000000     1.41865    


