data_structure

_audit_creation_method RASPA-1.0
_audit_creation_date 2023-5-22
_audit_author_name 'Poobodin Mano'

_cell_length_a    39.3763
_cell_length_b    39.3767
_cell_length_c    27.99
_cell_angle_alpha 90
_cell_angle_beta  90
_cell_angle_gamma 89.9999
_cell_volume      43398.7

_symmetry_cell_setting          triclinic
_symmetry_space_group_name_Hall 'P 1'
_symmetry_space_group_name_H-M  'P 1'
_symmetry_Int_Tables_number     1

_symmetry_equiv_pos_as_xyz 'x,y,z'

loop_
_atom_site_label
_atom_site_type_symbol
_atom_site_fract_x
_atom_site_fract_y
_atom_site_fract_z
_atom_site_charge
C1       C      0.040290000000     0.911900000000     0.858080000000     0.349004   
C2       C      0.919130000000     0.036280000000     0.858730000000     0.348871   
C3       C      0.918650000000     0.912430000000     0.858620000000     0.348694   
C4       C      0.040580000000     0.036270000000     0.858580000000     0.349005   
C5       C      0.918020000000     0.034610000000     0.101970000000     0.349023   
C6       C      0.041910000000     0.912880000000     0.101290000000     0.34898    
C7       C      0.857900000000     0.974270000000     0.981860000000     0.35354    
C8       C      0.980110000000     0.096080000000     0.979550000000     0.353253   
C9       C      0.101970000000     0.973830000000     0.981200000000     0.353515   
C10      C      0.979720000000     0.852010000000     0.978840000000     0.35378    
C11      C      0.918290000000     0.912890000000     0.101720000000     0.349018   
C12      C      0.042180000000     0.034670000000     0.101580000000     0.348836   
C13      C      0.980340000000     0.352030000000     0.981010000000     0.35358    
C14      C      0.858020000000     0.473750000000     0.978740000000     0.353461   
C15      C      0.919180000000     0.412230000000     0.101790000000     0.348674   
C16      C      0.918220000000     0.412870000000     0.858650000000     0.349025   
C17      C      0.979750000000     0.596100000000     0.980880000000     0.353681   
C18      C      0.102080000000     0.474420000000     0.978240000000     0.353913   
C19      C      0.919410000000     0.536210000000     0.101530000000     0.348993   
C20      C      0.917740000000     0.534630000000     0.858520000000     0.349196   
C21      C      0.041890000000     0.413180000000     0.858340000000     0.349113   
C22      C      0.041420000000     0.412440000000     0.101480000000     0.348586   
C23      C      0.041330000000     0.535680000000     0.101590000000     0.348738   
C24      C      0.041790000000     0.534960000000     0.858390000000     0.348684   
C25      C      0.357900000000     0.974260000000     0.981640000000     0.353787   
C26      C      0.480010000000     0.096110000000     0.979730000000     0.353505   
C27      C      0.417950000000     0.034420000000     0.102070000000     0.34892    
C28      C      0.419080000000     0.036230000000     0.858800000000     0.348705   
C29      C      0.601960000000     0.973920000000     0.981480000000     0.353671   
C30      C      0.479760000000     0.852040000000     0.978950000000     0.353754   
C31      C      0.542240000000     0.034580000000     0.101740000000     0.349101   
C32      C      0.540670000000     0.036280000000     0.858740000000     0.348977   
C33      C      0.418900000000     0.912280000000     0.858640000000     0.348859   
C34      C      0.417680000000     0.913530000000     0.101780000000     0.349219   
C35      C      0.541710000000     0.912580000000     0.101350000000     0.34901    
C36      C      0.540850000000     0.912400000000     0.858250000000     0.3489     
C37      C      0.358010000000     0.474220000000     0.978070000000     0.353712   
C38      C      0.479910000000     0.352050000000     0.981040000000     0.353636   
C39      C      0.418390000000     0.413090000000     0.858190000000     0.348968   
C40      C      0.418800000000     0.412150000000     0.101290000000     0.348904   
C41      C      0.602050000000     0.474010000000     0.978940000000     0.353635   
C42      C      0.480150000000     0.596140000000     0.980720000000     0.353718   
C43      C      0.541910000000     0.413020000000     0.858560000000     0.348895   
C44      C      0.540940000000     0.412250000000     0.101660000000     0.348608   
C45      C      0.418950000000     0.535990000000     0.101320000000     0.348845   
C46      C      0.418650000000     0.535410000000     0.858180000000     0.348737   
C47      C      0.542320000000     0.534780000000     0.858650000000     0.349012   
C48      C      0.540420000000     0.536130000000     0.101890000000     0.34902    
C49      C      0.171080000000     0.284220000000     0.603650000000     0.333105   
C50      C      0.170940000000     0.164130000000     0.356220000000     0.333785   
C51      C      0.169620000000     0.165560000000     0.604030000000     0.331241   
C52      C      0.172880000000     0.285310000000     0.355770000000     0.334347   
C53      C      0.289460000000     0.283250000000     0.355930000000     0.333459   
C54      C      0.289660000000     0.165250000000     0.604290000000     0.333453   
C55      C      0.287170000000     0.162200000000     0.356320000000     0.334731   
C56      C      0.290030000000     0.283010000000     0.603780000000     0.331313   
C57      C      0.168410000000     0.781250000000     0.603970000000     0.333094   
C58      C      0.172540000000     0.662750000000     0.356100000000     0.333599   
C59      C      0.171880000000     0.663400000000     0.603960000000     0.331476   
C60      C      0.171070000000     0.783860000000     0.356020000000     0.334886   
C61      C      0.286410000000     0.786260000000     0.356030000000     0.333095   
C62      C      0.291430000000     0.666880000000     0.604030000000     0.333096   
C63      C      0.289930000000     0.665180000000     0.356030000000     0.334105   
C64      C      0.288350000000     0.784680000000     0.603860000000     0.33148    
C65      C      0.790250000000     0.165780000000     0.604240000000     0.333457   
C66      C      0.788840000000     0.283940000000     0.356110000000     0.333497   
C67      C      0.789410000000     0.283560000000     0.603950000000     0.331318   
C68      C      0.787700000000     0.162860000000     0.356290000000     0.334809   
C69      C      0.671490000000     0.163630000000     0.356270000000     0.333757   
C70      C      0.669860000000     0.282810000000     0.603920000000     0.333479   
C71      C      0.672090000000     0.284780000000     0.355980000000     0.334643   
C72      C      0.670260000000     0.164920000000     0.604080000000     0.331354   
C73      C      0.788540000000     0.784210000000     0.604030000000     0.333369   
C74      C      0.669940000000     0.782650000000     0.356050000000     0.333465   
C75      C      0.670410000000     0.783390000000     0.603900000000     0.331108   
C76      C      0.790830000000     0.781930000000     0.356100000000     0.334889   
C77      C      0.790390000000     0.665490000000     0.356160000000     0.333621   
C78      C      0.671720000000     0.663610000000     0.604040000000     0.333501   
C79      C      0.668960000000     0.666280000000     0.356090000000     0.334751   
C80      C      0.789260000000     0.664390000000     0.603970000000     0.331448   
C81      C      0.365150000000     0.344470000000     0.161650000000    -0.0660863  
C82      C      0.363050000000     0.356700000000     0.208770000000     0.0227611  
C83      C      0.379410000000     0.387460000000     0.220060000000    -0.0660936  
C84      C      0.397670000000     0.405300000000     0.185350000000     0.0218895  
C85      C      0.399710000000     0.393070000000     0.138270000000    -0.104792   
C86      C      0.383110000000     0.362500000000     0.126800000000     0.0225837  
C87      C      0.344190000000     0.337390000000     0.246140000000     0.02061    
C88      C      0.313920000000     0.320000000000     0.235160000000    -0.0633799  
C89      C      0.296270000000     0.302090000000     0.270530000000     0.0188435  
C90      C      0.308280000000     0.301450000000     0.317820000000    -0.0968039  
C91      C      0.338590000000     0.318700000000     0.328710000000     0.018538   
C92      C      0.356380000000     0.336250000000     0.293340000000    -0.0636479  
C93      C      0.393810000000     0.373900000000     0.739220000000    -0.0661356  
C94      C      0.363430000000     0.356900000000     0.750670000000     0.0228088  
C95      C      0.351380000000     0.358560000000     0.797910000000    -0.0662114  
C96      C      0.369220000000     0.376710000000     0.832740000000     0.0225143  
C97      C      0.399440000000     0.393920000000     0.821140000000    -0.10468    
C98      C      0.411480000000     0.392330000000     0.773920000000     0.0217231  
C99      C      0.344280000000     0.337860000000     0.713340000000     0.0198678  
C100     C      0.342500000000     0.350350000000     0.666360000000    -0.0629662  
C101     C      0.324960000000     0.332500000000     0.631060000000     0.0157771  
C102     C      0.308370000000     0.301790000000     0.641800000000    -0.096947   
C103     C      0.309720000000     0.289420000000     0.688880000000     0.0178755  
C104     C      0.327610000000     0.307160000000     0.724190000000    -0.0631468  
C105     C      0.314260000000     0.628260000000     0.235310000000    -0.063547   
C106     C      0.344570000000     0.610920000000     0.246250000000     0.0205461  
C107     C      0.356830000000     0.612150000000     0.293400000000    -0.0636491  
C108     C      0.339080000000     0.629750000000     0.328770000000     0.017829   
C109     C      0.308750000000     0.646960000000     0.317930000000    -0.0962451  
C110     C      0.296650000000     0.646210000000     0.270680000000     0.0184577  
C111     C      0.363380000000     0.591570000000     0.208870000000     0.022732   
C112     C      0.379740000000     0.560810000000     0.220170000000    -0.0658118  
C113     C      0.397930000000     0.542920000000     0.185440000000     0.0219721  
C114     C      0.399920000000     0.555120000000     0.138330000000    -0.104154   
C115     C      0.383330000000     0.585700000000     0.126850000000     0.0227515  
C116     C      0.365430000000     0.603770000000     0.161720000000    -0.0657849  
C117     C      0.365840000000     0.603900000000     0.798250000000    -0.0662501  
C118     C      0.364350000000     0.592340000000     0.750750000000     0.0223781  
C119     C      0.380790000000     0.561700000000     0.739020000000    -0.0660918  
C120     C      0.398500000000     0.543290000000     0.773730000000     0.0221986  
C121     C      0.399910000000     0.554850000000     0.821200000000    -0.104845   
C122     C      0.383260000000     0.585330000000     0.833050000000     0.0217733  
C123     C      0.345900000000     0.612200000000     0.713550000000     0.0203697  
C124     C      0.315440000000     0.629280000000     0.724410000000    -0.0639251  
C125     C      0.298020000000     0.647550000000     0.689190000000     0.0179185  
C126     C      0.310460000000     0.648890000000     0.642150000000    -0.0988032  
C127     C      0.341030000000     0.632060000000     0.631420000000     0.0179664  
C128     C      0.358590000000     0.614120000000     0.666670000000    -0.0646539  
C129     C      0.578040000000     0.562400000000     0.221190000000    -0.0658321  
C130     C      0.595100000000     0.592680000000     0.209350000000     0.0226827  
C131     C      0.593940000000     0.604130000000     0.161790000000    -0.0662383  
C132     C      0.576280000000     0.585760000000     0.127000000000     0.0225284  
C133     C      0.559090000000     0.555600000000     0.138940000000    -0.104447   
C134     C      0.560130000000     0.544190000000     0.186500000000     0.0219895  
C135     C      0.613860000000     0.612250000000     0.246540000000     0.0207277  
C136     C      0.601010000000     0.614660000000     0.293270000000    -0.0641252  
C137     C      0.618810000000     0.632330000000     0.328530000000     0.0196393  
C138     C      0.649840000000     0.648360000000     0.317970000000    -0.0960995  
C139     C      0.662490000000     0.646500000000     0.271070000000     0.0178923  
C140     C      0.644780000000     0.628530000000     0.235820000000    -0.0633482  
C141     C      0.635200000000     0.638770000000     0.724740000000    -0.0640042  
C142     C      0.618100000000     0.608330000000     0.713780000000     0.0205076  
C143     C      0.619560000000     0.596020000000     0.666670000000    -0.0646655  
C144     C      0.637050000000     0.613900000000     0.631310000000     0.0181026  
C145     C      0.653910000000     0.644420000000     0.642160000000    -0.098885   
C146     C      0.653030000000     0.656510000000     0.689410000000     0.0181053  
C147     C      0.598640000000     0.589560000000     0.751080000000     0.022358   
C148     C      0.610550000000     0.587790000000     0.798390000000    -0.0657981  
C149     C      0.592240000000     0.570150000000     0.833270000000     0.0225729  
C150     C      0.561700000000     0.553540000000     0.821630000000    -0.104358   
C151     C      0.549840000000     0.555180000000     0.774330000000     0.0216102  
C152     C      0.567960000000     0.573120000000     0.739590000000    -0.0658991  
C153     C      0.567160000000     0.374580000000     0.221010000000    -0.0658789  
C154     C      0.597340000000     0.357370000000     0.209120000000     0.0225321  
C155     C      0.608580000000     0.358210000000     0.161450000000    -0.0659313  
C156     C      0.590170000000     0.375800000000     0.126640000000     0.0217071  
C157     C      0.560180000000     0.393270000000     0.138650000000    -0.104372   
C158     C      0.548910000000     0.392440000000     0.186280000000     0.0221383  
C159     C      0.617110000000     0.338890000000     0.246370000000     0.020748   
C160     C      0.619790000000     0.352090000000     0.292890000000    -0.0642116  
C161     C      0.637780000000     0.334620000000     0.328160000000     0.0196586  
C162     C      0.653890000000     0.303590000000     0.317820000000    -0.09613    
C163     C      0.651750000000     0.290590000000     0.271140000000     0.0179013  
C164     C      0.633440000000     0.307950000000     0.235890000000    -0.0633165  
C165     C      0.595150000000     0.345030000000     0.798250000000    -0.0659542  
C166     C      0.596910000000     0.356960000000     0.750950000000     0.0223205  
C167     C      0.580560000000     0.387710000000     0.739540000000    -0.0659309  
C168     C      0.562640000000     0.405820000000     0.774320000000     0.0222426  
C169     C      0.560930000000     0.393870000000     0.821570000000    -0.104627   
C170     C      0.577540000000     0.363320000000     0.833150000000     0.0217258  
C171     C      0.615470000000     0.337360000000     0.713590000000     0.0205526  
C172     C      0.645780000000     0.320030000000     0.724470000000    -0.0639882  
C173     C      0.663220000000     0.301890000000     0.689160000000     0.0181708  
C174     C      0.650960000000     0.300940000000     0.642010000000    -0.0990049  
C175     C      0.620590000000     0.318090000000     0.631220000000     0.0182054  
C176     C      0.602990000000     0.335890000000     0.666560000000    -0.0647438  
C177     C      0.450830000000     0.761030000000     0.993570000000    -0.0672304  
C178     C      0.479900000000     0.742910000000     0.979430000000     0.0228889  
C179     C      0.508870000000     0.761020000000     0.964890000000    -0.067008   
C180     C      0.508850000000     0.796450000000     0.964790000000     0.0246732  
C181     C      0.479740000000     0.814540000000     0.978830000000    -0.107702   
C182     C      0.450700000000     0.796440000000     0.993060000000     0.0235304  
C183     C      0.479990000000     0.705260000000     0.979830000000     0.0229631  
C184     C      0.508970000000     0.687260000000     0.994640000000    -0.0676146  
C185     C      0.509080000000     0.651830000000     0.994810000000     0.0241957  
C186     C      0.480090000000     0.633640000000     0.980590000000    -0.108117   
C187     C      0.451050000000     0.651610000000     0.966020000000     0.0238469  
C188     C      0.451060000000     0.687020000000     0.965440000000    -0.0671825  
C189     C      0.509020000000     0.187190000000     0.965930000000    -0.0669067  
C190     C      0.480000000000     0.205250000000     0.980420000000     0.0227378  
C191     C      0.450980000000     0.187070000000     0.994600000000    -0.0673572  
C192     C      0.450920000000     0.151650000000     0.994080000000     0.0230431  
C193     C      0.480000000000     0.133610000000     0.979830000000    -0.107866   
C194     C      0.509080000000     0.151760000000     0.965850000000     0.0241992  
C195     C      0.479960000000     0.242910000000     0.980710000000     0.0227478  
C196     C      0.508940000000     0.261010000000     0.995250000000    -0.0673947  
C197     C      0.508960000000     0.296440000000     0.995250000000     0.0237277  
C198     C      0.479890000000     0.314550000000     0.981150000000    -0.10784    
C199     C      0.450840000000     0.296460000000     0.966880000000     0.0235103  
C200     C      0.450940000000     0.261040000000     0.966450000000    -0.0668333  
C201     C      0.349280000000     0.860420000000     0.161480000000    -0.0663901  
C202     C      0.360480000000     0.859490000000     0.209170000000     0.0231851  
C203     C      0.390750000000     0.876490000000     0.221150000000    -0.0662308  
C204     C      0.409210000000     0.894140000000     0.186450000000     0.022312   
C205     C      0.398040000000     0.894990000000     0.138770000000    -0.104681   
C206     C      0.367880000000     0.877840000000     0.126700000000     0.0227879  
C207     C      0.340670000000     0.840980000000     0.246340000000     0.0199805  
C208     C      0.337940000000     0.854150000000     0.292870000000    -0.0627101  
C209     C      0.320120000000     0.836520000000     0.328160000000     0.016669   
C210     C      0.304270000000     0.805350000000     0.317820000000    -0.0959498  
C211     C      0.306430000000     0.792420000000     0.271090000000     0.0174444  
C212     C      0.324540000000     0.809960000000     0.235830000000    -0.0628052  
C213     C      0.341100000000     0.851610000000     0.667010000000    -0.0631172  
C214     C      0.343500000000     0.838480000000     0.713600000000     0.0198053  
C215     C      0.327010000000     0.807620000000     0.724030000000    -0.063303   
C216     C      0.308750000000     0.790300000000     0.688700000000     0.0174784  
C217     C      0.306800000000     0.803280000000     0.641980000000    -0.0970313  
C218     C      0.323150000000     0.834180000000     0.631650000000     0.0156733  
C219     C      0.363100000000     0.857010000000     0.750990000000     0.0227423  
C220     C      0.393350000000     0.874160000000     0.739320000000    -0.0660357  
C221     C      0.411400000000     0.892150000000     0.774120000000     0.022269   
C222     C      0.399840000000     0.893170000000     0.821610000000    -0.104342   
C223     C      0.369780000000     0.875750000000     0.833410000000     0.0220329  
C224     C      0.351580000000     0.858030000000     0.798520000000    -0.0660405  
C225     C      0.391280000000     0.071490000000     0.221550000000    -0.0656454  
C226     C      0.361110000000     0.088690000000     0.209630000000     0.0226941  
C227     C      0.349880000000     0.087840000000     0.161950000000    -0.0658142  
C228     C      0.368360000000     0.070340000000     0.127130000000     0.022489   
C229     C      0.398420000000     0.053000000000     0.139140000000    -0.104047   
C230     C      0.409610000000     0.053730000000     0.186820000000     0.0219652  
C231     C      0.341430000000     0.107320000000     0.246810000000     0.0209046  
C232     C      0.338730000000     0.094240000000     0.293400000000    -0.0640735  
C233     C      0.320960000000     0.111960000000     0.328660000000     0.0197943  
C234     C      0.305120000000     0.143110000000     0.318220000000    -0.0961678  
C235     C      0.307280000000     0.155970000000     0.271460000000     0.0180035  
C236     C      0.325350000000     0.138360000000     0.236230000000    -0.0633703  
C237     C      0.380280000000     0.061550000000     0.739880000000    -0.0659124  
C238     C      0.363860000000     0.092250000000     0.751320000000     0.0222791  
C239     C      0.365780000000     0.104270000000     0.798570000000    -0.0659169  
C240     C      0.383570000000     0.086060000000     0.833410000000     0.0222414  
C241     C      0.400180000000     0.055520000000     0.821810000000    -0.104464   
C242     C      0.398370000000     0.043530000000     0.774580000000     0.0214841  
C243     C      0.345000000000     0.111650000000     0.714030000000     0.0204301  
C244     C      0.357180000000     0.112950000000     0.666830000000    -0.0645683  
C245     C      0.339260000000     0.130410000000     0.631490000000     0.0181054  
C246     C      0.308830000000     0.147420000000     0.642410000000    -0.098799   
C247     C      0.296870000000     0.146700000000     0.689730000000     0.0179646  
C248     C      0.314650000000     0.128880000000     0.725060000000    -0.063978   
C249     C      0.647480000000     0.126350000000     0.235670000000    -0.0633758  
C250     C      0.617350000000     0.108730000000     0.246670000000     0.0208017  
C251     C      0.605170000000     0.109780000000     0.293870000000    -0.0637539  
C252     C      0.622800000000     0.127530000000     0.329200000000     0.0188046  
C253     C      0.652920000000     0.145090000000     0.318260000000    -0.0969838  
C254     C      0.664960000000     0.144470000000     0.270990000000     0.0190663  
C255     C      0.598530000000     0.089430000000     0.209260000000     0.0227257  
C256     C      0.596320000000     0.101820000000     0.162230000000    -0.0659769  
C257     C      0.578260000000     0.083920000000     0.127360000000     0.0219392  
C258     C      0.561630000000     0.053340000000     0.138720000000    -0.104696   
C259     C      0.563820000000     0.040920000000     0.185690000000     0.0226142  
C260     C      0.582190000000     0.058620000000     0.220420000000    -0.0658387  
C261     C      0.631950000000     0.141740000000     0.724410000000    -0.0633276  
C262     C      0.615190000000     0.111050000000     0.713820000000     0.0198292  
C263     C      0.617200000000     0.098190000000     0.667050000000    -0.0631207  
C264     C      0.635050000000     0.115690000000     0.631700000000     0.0157617  
C265     C      0.651720000000     0.146400000000     0.642190000000    -0.0971414  
C266     C      0.650130000000     0.159130000000     0.689060000000     0.0175418  
C267     C      0.595770000000     0.092360000000     0.751230000000     0.0227396  
C268     C      0.607610000000     0.090960000000     0.798590000000    -0.0662015  
C269     C      0.589640000000     0.072960000000     0.833440000000     0.0218581  
C270     C      0.559500000000     0.055650000000     0.821770000000    -0.104709   
C271     C      0.547610000000     0.057070000000     0.774470000000     0.022435   
C272     C      0.565410000000     0.075340000000     0.739720000000    -0.0661099  
C273     C      0.565860000000     0.872660000000     0.219960000000    -0.065936   
C274     C      0.596710000000     0.856410000000     0.208840000000     0.0228296  
C275     C      0.609190000000     0.858760000000     0.161860000000    -0.0657987  
C276     C      0.591300000000     0.876850000000     0.126990000000     0.0228694  
C277     C      0.560650000000     0.893340000000     0.138320000000    -0.104506   
C278     C      0.548170000000     0.891050000000     0.185250000000     0.0219422  
C279     C      0.615880000000     0.837450000000     0.246250000000     0.020781   
C280     C      0.616730000000     0.849450000000     0.293560000000    -0.0636397  
C281     C      0.634200000000     0.831600000000     0.328940000000     0.0187089  
C282     C      0.651660000000     0.801440000000     0.317970000000    -0.096719   
C283     C      0.651280000000     0.789590000000     0.270590000000     0.0188925  
C284     C      0.633440000000     0.807300000000     0.235200000000    -0.0633267  
C285     C      0.595030000000     0.845060000000     0.798060000000    -0.0665641  
C286     C      0.596650000000     0.857000000000     0.750760000000     0.0228287  
C287     C      0.579720000000     0.887410000000     0.739220000000    -0.0662263  
C288     C      0.561430000000     0.905230000000     0.773920000000     0.021893   
C289     C      0.559890000000     0.893320000000     0.821200000000    -0.104987   
C290     C      0.577000000000     0.863060000000     0.832860000000     0.022594   
C291     C      0.615600000000     0.837720000000     0.713460000000     0.0197141  
C292     C      0.646300000000     0.821060000000     0.724290000000    -0.0632874  
C293     C      0.664010000000     0.803110000000     0.689000000000     0.0173772  
C294     C      0.651590000000     0.801690000000     0.641950000000    -0.0970848  
C295     C      0.620850000000     0.818230000000     0.631240000000     0.0156904  
C296     C      0.603040000000     0.835840000000     0.666520000000    -0.0630152  
C297     C      0.766920000000     0.444690000000     0.992060000000    -0.0673348  
C298     C      0.748870000000     0.473740000000     0.977650000000     0.0227406  
C299     C      0.767060000000     0.502730000000     0.963370000000    -0.0668015  
C300     C      0.802490000000     0.502760000000     0.963850000000     0.024175   
C301     C      0.820510000000     0.473690000000     0.978180000000    -0.10761    
C302     C      0.802350000000     0.444610000000     0.992100000000     0.0229908  
C303     C      0.711210000000     0.473850000000     0.977730000000     0.0227249  
C304     C      0.692960000000     0.444880000000     0.963490000000    -0.0668008  
C305     C      0.657540000000     0.444890000000     0.964040000000     0.0241984  
C306     C      0.639560000000     0.473980000000     0.978410000000    -0.10771    
C307     C      0.657780000000     0.503020000000     0.992360000000     0.023017   
C308     C      0.693200000000     0.502900000000     0.992240000000    -0.0673604  
C309     C      0.192990000000     0.445560000000     0.962010000000    -0.0671408  
C310     C      0.211210000000     0.474480000000     0.976480000000     0.0229138  
C311     C      0.193190000000     0.503450000000     0.991250000000    -0.0674019  
C312     C      0.157770000000     0.503530000000     0.991490000000     0.0231985  
C313     C      0.139580000000     0.474500000000     0.977410000000    -0.107988   
C314     C      0.157560000000     0.445510000000     0.962680000000     0.0244183  
C315     C      0.248870000000     0.474350000000     0.976510000000     0.0227374  
C316     C      0.266860000000     0.445250000000     0.990830000000    -0.0672039  
C317     C      0.302280000000     0.445130000000     0.991030000000     0.0230416  
C318     C      0.320510000000     0.474240000000     0.977360000000    -0.107545   
C319     C      0.302540000000     0.503370000000     0.963110000000     0.0244503  
C320     C      0.267120000000     0.503370000000     0.962490000000    -0.0666824  
C321     C      0.855940000000     0.336930000000     0.293870000000    -0.0637085  
C322     C      0.843980000000     0.337950000000     0.246560000000     0.0207278  
C323     C      0.813750000000     0.320540000000     0.235400000000    -0.0633994  
C324     C      0.795940000000     0.302700000000     0.270700000000     0.0188201  
C325     C      0.807750000000     0.302170000000     0.318090000000    -0.096762   
C326     C      0.837990000000     0.319470000000     0.329160000000     0.0186882  
C327     C      0.863050000000     0.357110000000     0.209240000000     0.0226315  
C328     C      0.879480000000     0.387850000000     0.220500000000    -0.0657962  
C329     C      0.897910000000     0.405550000000     0.185830000000     0.0217337  
C330     C      0.900060000000     0.393210000000     0.138820000000    -0.104489   
C331     C      0.883430000000     0.362650000000     0.127390000000     0.0224562  
C332     C      0.865310000000     0.344750000000     0.162200000000    -0.0659384  
C333     C      0.893360000000     0.373970000000     0.739640000000    -0.066329   
C334     C      0.862960000000     0.357020000000     0.751110000000     0.0228574  
C335     C      0.851020000000     0.358550000000     0.798420000000    -0.0662298  
C336     C      0.868980000000     0.376560000000     0.833280000000     0.0225981  
C337     C      0.899200000000     0.393740000000     0.821640000000    -0.104893   
C338     C      0.911140000000     0.392240000000     0.774370000000     0.02195    
C339     C      0.843690000000     0.338150000000     0.713740000000     0.019833   
C340     C      0.841830000000     0.350810000000     0.666850000000    -0.0630391  
C341     C      0.824240000000     0.333060000000     0.631470000000     0.015798   
C342     C      0.807710000000     0.302310000000     0.642060000000    -0.0971451  
C343     C      0.809120000000     0.289790000000     0.689060000000     0.0175932  
C344     C      0.827040000000     0.307420000000     0.724430000000    -0.0633005  
C345     C      0.895380000000     0.576220000000     0.220200000000    -0.0656793  
C346     C      0.864530000000     0.592480000000     0.209080000000     0.0227251  
C347     C      0.852100000000     0.590200000000     0.162080000000    -0.0657226  
C348     C      0.869990000000     0.572150000000     0.127200000000     0.0220988  
C349     C      0.900620000000     0.555600000000     0.138520000000    -0.104173   
C350     C      0.913090000000     0.557850000000     0.185460000000     0.0224256  
C351     C      0.845240000000     0.611310000000     0.246510000000     0.0207963  
C352     C      0.844290000000     0.599200000000     0.293750000000    -0.0637024  
C353     C      0.826550000000     0.616840000000     0.329090000000     0.0187055  
C354     C      0.808910000000     0.646900000000     0.318120000000    -0.0968714  
C355     C      0.809430000000     0.658880000000     0.270820000000     0.018983   
C356     C      0.827530000000     0.641390000000     0.235480000000    -0.063382   
C357     C      0.812470000000     0.626120000000     0.724290000000    -0.0632308  
C358     C      0.843110000000     0.609300000000     0.713670000000     0.0198136  
C359     C      0.855940000000     0.611260000000     0.666880000000    -0.0630462  
C360     C      0.838450000000     0.629130000000     0.631540000000     0.0158263  
C361     C      0.807780000000     0.645860000000     0.642060000000    -0.0971902  
C362     C      0.795080000000     0.644320000000     0.688960000000     0.0175658  
C363     C      0.861780000000     0.589850000000     0.751050000000     0.0228618  
C364     C      0.863290000000     0.601730000000     0.798380000000    -0.066443   
C365     C      0.881240000000     0.583720000000     0.833220000000     0.0220164  
C366     C      0.898410000000     0.553490000000     0.821560000000    -0.105008   
C367     C      0.896890000000     0.541560000000     0.774290000000     0.0226434  
C368     C      0.878660000000     0.559400000000     0.739560000000    -0.0661769  
C369     C      0.147420000000     0.626610000000     0.235230000000    -0.0637703  
C370     C      0.117380000000     0.608910000000     0.246470000000     0.0208226  
C371     C      0.105720000000     0.609410000000     0.293950000000    -0.0638837  
C372     C      0.123750000000     0.626730000000     0.329300000000     0.0189011  
C373     C      0.153750000000     0.644400000000     0.318110000000    -0.0973183  
C374     C      0.165300000000     0.644310000000     0.270590000000     0.019103   
C375     C      0.098140000000     0.590000000000     0.209070000000     0.0226806  
C376     C      0.095430000000     0.602820000000     0.162310000000    -0.0662406  
C377     C      0.077080000000     0.585190000000     0.127460000000     0.0225938  
C378     C      0.060680000000     0.554450000000     0.138600000000    -0.104837   
C379     C      0.063300000000     0.541650000000     0.185320000000     0.0218872  
C380     C      0.081960000000     0.559080000000     0.220000000000    -0.0658949  
C381     C      0.109320000000     0.589050000000     0.798430000000    -0.0658175  
C382     C      0.097830000000     0.590150000000     0.750890000000     0.0227638  
C383     C      0.067630000000     0.572940000000     0.739120000000    -0.0657751  
C384     C      0.049580000000     0.554890000000     0.773830000000     0.0219215  
C385     C      0.061060000000     0.553860000000     0.821360000000    -0.103905   
C386     C      0.091110000000     0.571260000000     0.833250000000     0.0225949  
C387     C      0.117340000000     0.608880000000     0.713610000000     0.01998    
C388     C      0.133650000000     0.639810000000     0.724190000000    -0.0633777  
C389     C      0.151710000000     0.657380000000     0.688890000000     0.0175852  
C390     C      0.153640000000     0.644580000000     0.642080000000    -0.0971426  
C391     C      0.137510000000     0.613580000000     0.631630000000     0.015807   
C392     C      0.119760000000     0.595910000000     0.666940000000    -0.0631074  
C393     C      0.120930000000     0.352790000000     0.292480000000    -0.0640979  
C394     C      0.118020000000     0.339420000000     0.246080000000     0.0207739  
C395     C      0.134140000000     0.308370000000     0.235710000000    -0.0632536  
C396     C      0.152440000000     0.291020000000     0.270960000000     0.0177842  
C397     C      0.154790000000     0.304170000000     0.317550000000    -0.0959868  
C398     C      0.138920000000     0.335340000000     0.327760000000     0.0196009  
C399     C      0.098150000000     0.357830000000     0.208860000000     0.0225359  
C400     C      0.068050000000     0.375140000000     0.220860000000    -0.0657876  
C401     C      0.049690000000     0.392900000000     0.186160000000     0.0221477  
C402     C      0.060770000000     0.393530000000     0.138430000000    -0.104308   
C403     C      0.090690000000     0.375980000000     0.126310000000     0.0217264  
C404     C      0.109200000000     0.358480000000     0.161090000000    -0.0658744  
C405     C      0.133160000000     0.308000000000     0.723970000000    -0.0641804  
C406     C      0.116610000000     0.338780000000     0.713290000000     0.0206863  
C407     C      0.118610000000     0.351500000000     0.666440000000    -0.0646493  
C408     C      0.136250000000     0.333770000000     0.631090000000     0.0178938  
C409     C      0.152700000000     0.302970000000     0.641680000000    -0.0989573  
C410     C      0.151110000000     0.290370000000     0.688630000000     0.0189492  
C411     C      0.097330000000     0.357630000000     0.750660000000     0.0225678  
C412     C      0.066910000000     0.374560000000     0.739200000000    -0.0660245  
C413     C      0.049070000000     0.392740000000     0.773970000000     0.0221407  
C414     C      0.060990000000     0.394190000000     0.821260000000    -0.104651   
C415     C      0.091260000000     0.377090000000     0.832860000000     0.0228484  
C416     C      0.109270000000     0.359160000000     0.797970000000    -0.0661702  
C417     C      0.693110000000     0.944990000000     0.968410000000    -0.0669429  
C418     C      0.711100000000     0.974040000000     0.982980000000     0.0226873  
C419     C      0.692850000000     0.002990000000     0.997240000000    -0.0672319  
C420     C      0.657430000000     0.002990000000     0.996620000000     0.0238931  
C421     C      0.639460000000     0.973920000000     0.982150000000    -0.107915   
C422     C      0.657690000000     0.944880000000     0.968220000000     0.0235916  
C423     C      0.748760000000     0.974180000000     0.983060000000     0.0226912  
C424     C      0.766980000000     0.945200000000     0.997310000000    -0.0673516  
C425     C      0.802410000000     0.945200000000     0.996820000000     0.0237715  
C426     C      0.820400000000     0.974290000000     0.982490000000    -0.107894   
C427     C      0.802210000000     0.003360000000     0.968600000000     0.0236358  
C428     C      0.766780000000     0.003250000000     0.968660000000    -0.0668446  
C429     C      0.192850000000     0.002960000000     0.996780000000    -0.067165   
C430     C      0.211110000000     0.973960000000     0.982710000000     0.0226054  
C431     C      0.193130000000     0.944860000000     0.968330000000    -0.0668984  
C432     C      0.157700000000     0.944740000000     0.968130000000     0.0235168  
C433     C      0.139470000000     0.973830000000     0.981860000000    -0.107865   
C434     C      0.157430000000     0.002950000000     0.996150000000     0.023837   
C435     C      0.248770000000     0.974110000000     0.982790000000     0.0227997  
C436     C      0.266770000000     0.003130000000     0.968160000000    -0.0669033  
C437     C      0.302200000000     0.003270000000     0.968120000000     0.0237045  
C438     C      0.320400000000     0.974260000000     0.982250000000    -0.108115   
C439     C      0.302420000000     0.945220000000     0.996820000000     0.0239647  
C440     C      0.267000000000     0.945210000000     0.997300000000    -0.0676106  
C441     C      0.950640000000     0.761080000000     0.993810000000    -0.0674343  
C442     C      0.979610000000     0.742880000000     0.979480000000     0.0228837  
C443     C      0.008570000000     0.760920000000     0.964710000000    -0.0669752  
C444     C      0.008640000000     0.796350000000     0.964570000000     0.0248304  
C445     C      0.979630000000     0.814510000000     0.978790000000    -0.107976   
C446     C      0.950590000000     0.796500000000     0.993250000000     0.0236278  
C447     C      0.979620000000     0.705230000000     0.979990000000     0.0228767  
C448     C      0.008620000000     0.687210000000     0.994650000000    -0.0674078  
C449     C      0.008690000000     0.651780000000     0.994870000000     0.0242837  
C450     C      0.979650000000     0.633600000000     0.980820000000    -0.107979   
C451     C      0.950580000000     0.651600000000     0.966450000000     0.0241565  
C452     C      0.950620000000     0.687010000000     0.965830000000    -0.0669746  
C453     C      0.951290000000     0.187100000000     0.994530000000    -0.0673123  
C454     C      0.980330000000     0.205220000000     0.980300000000     0.0226969  
C455     C      0.009290000000     0.187110000000     0.965730000000    -0.0667983  
C456     C      0.009270000000     0.151670000000     0.965620000000     0.0242707  
C457     C      0.980170000000     0.133580000000     0.979650000000    -0.107842   
C458     C      0.951150000000     0.151680000000     0.993990000000     0.0229909  
C459     C      0.980360000000     0.242880000000     0.980570000000     0.022692   
C460     C      0.951340000000     0.261050000000     0.966370000000    -0.066799   
C461     C      0.951280000000     0.296460000000     0.966820000000     0.0236312  
C462     C      0.980350000000     0.314520000000     0.981020000000    -0.107692   
C463     C      0.009440000000     0.296400000000     0.995020000000     0.0240049  
C464     C      0.009390000000     0.260960000000     0.995020000000    -0.0671647  
C465     C      0.880560000000     0.886760000000     0.221020000000    -0.0660072  
C466     C      0.863520000000     0.856470000000     0.209200000000     0.0226985  
C467     C      0.864520000000     0.845110000000     0.161590000000    -0.0662121  
C468     C      0.882090000000     0.863510000000     0.126760000000     0.0219195  
C469     C      0.899360000000     0.893630000000     0.138700000000    -0.104758   
C470     C      0.898400000000     0.905010000000     0.186280000000     0.0224076  
C471     C      0.845030000000     0.836740000000     0.246460000000     0.0207467  
C472     C      0.858150000000     0.834210000000     0.293040000000    -0.06417    
C473     C      0.840640000000     0.816290000000     0.328340000000     0.0196971  
C474     C      0.809670000000     0.800090000000     0.317950000000    -0.096216   
C475     C      0.796750000000     0.802090000000     0.271210000000     0.0180145  
C476     C      0.814150000000     0.820330000000     0.235940000000    -0.0632714  
C477     C      0.841440000000     0.851250000000     0.666660000000    -0.0648003  
C478     C      0.842930000000     0.838810000000     0.713710000000     0.0205133  
C479     C      0.825650000000     0.808480000000     0.724620000000    -0.0640287  
C480     C      0.807550000000     0.790970000000     0.689320000000     0.0180668  
C481     C      0.806600000000     0.803180000000     0.642150000000    -0.0988842  
C482     C      0.823680000000     0.833590000000     0.631330000000     0.0180108  
C483     C      0.862530000000     0.857430000000     0.751040000000     0.0222353  
C484     C      0.893240000000     0.873840000000     0.739580000000    -0.0658894  
C485     C      0.911360000000     0.891770000000     0.774340000000     0.0221368  
C486     C      0.899460000000     0.893450000000     0.821620000000    -0.104291   
C487     C      0.868930000000     0.876800000000     0.833240000000     0.0218296  
C488     C      0.850630000000     0.859170000000     0.798360000000    -0.065742   
C489     C      0.825730000000     0.138930000000     0.236120000000    -0.0633479  
C490     C      0.841880000000     0.107930000000     0.246730000000     0.0208134  
C491     C      0.839310000000     0.094940000000     0.293380000000    -0.0640601  
C492     C      0.821600000000     0.112690000000     0.328660000000     0.0196705  
C493     C      0.805670000000     0.143790000000     0.318180000000    -0.0960892  
C494     C      0.807700000000     0.156570000000     0.271370000000     0.0179805  
C495     C      0.861480000000     0.089220000000     0.209520000000     0.022608   
C496     C      0.850160000000     0.088290000000     0.161890000000    -0.0658889  
C497     C      0.868540000000     0.070680000000     0.127070000000     0.0224446  
C498     C      0.898590000000     0.053300000000     0.139040000000    -0.104387   
C499     C      0.909870000000     0.054120000000     0.186670000000     0.0216857  
C500     C      0.891650000000     0.071990000000     0.221390000000    -0.0658488  
C501     C      0.857800000000     0.113560000000     0.666870000000    -0.0646891  
C502     C      0.845480000000     0.112090000000     0.713970000000     0.0204879  
C503     C      0.815060000000     0.129210000000     0.724940000000    -0.0640432  
C504     C      0.797340000000     0.147080000000     0.689620000000     0.0180545  
C505     C      0.809430000000     0.147970000000     0.642380000000    -0.09887    
C506     C      0.839940000000     0.131090000000     0.631520000000     0.0181054  
C507     C      0.864240000000     0.092600000000     0.751250000000     0.0222611  
C508     C      0.880690000000     0.061930000000     0.739730000000    -0.0659645  
C509     C      0.898650000000     0.043800000000     0.774440000000     0.0215652  
C510     C      0.900330000000     0.055650000000     0.821750000000    -0.104633   
C511     C      0.883690000000     0.086170000000     0.833420000000     0.0223087  
C512     C      0.866020000000     0.104480000000     0.798580000000    -0.0659457  
C513     C      0.096200000000     0.102000000000     0.162000000000    -0.0659647  
C514     C      0.098160000000     0.089800000000     0.209140000000     0.0227412  
C515     C      0.081720000000     0.059070000000     0.220400000000    -0.0658298  
C516     C      0.063460000000     0.041270000000     0.185650000000     0.0224708  
C517     C      0.061500000000     0.053520000000     0.138570000000    -0.104496   
C518     C      0.078240000000     0.084010000000     0.127120000000     0.0219007  
C519     C      0.116890000000     0.109190000000     0.246560000000     0.0207242  
C520     C      0.147140000000     0.126640000000     0.235660000000    -0.063321   
C521     C      0.164570000000     0.144800000000     0.271000000000     0.0189544  
C522     C      0.152350000000     0.145630000000     0.318180000000    -0.0968778  
C523     C      0.122110000000     0.128260000000     0.329010000000     0.0186748  
C524     C      0.104540000000     0.110460000000     0.293660000000    -0.0636607  
C525     C      0.131320000000     0.142310000000     0.724340000000    -0.0636648  
C526     C      0.114600000000     0.111600000000     0.713710000000     0.0198613  
C527     C      0.116570000000     0.098810000000     0.666900000000    -0.0632906  
C528     C      0.134370000000     0.116380000000     0.631560000000     0.0158612  
C529     C      0.151030000000     0.147070000000     0.642100000000    -0.097571   
C530     C      0.149460000000     0.159760000000     0.689000000000     0.017642   
C531     C      0.095300000000     0.092790000000     0.751120000000     0.0225906  
C532     C      0.107240000000     0.091300000000     0.798420000000    -0.0662282  
C533     C      0.089410000000     0.073150000000     0.833250000000     0.0217901  
C534     C      0.059310000000     0.055750000000     0.821610000000    -0.104663   
C535     C      0.047310000000     0.057260000000     0.774370000000     0.0222889  
C536     C      0.064970000000     0.075690000000     0.739650000000    -0.0660913  
C537     C      0.133560000000     0.807900000000     0.235550000000    -0.063069   
C538     C      0.117190000000     0.838790000000     0.246160000000     0.0209342  
C539     C      0.119360000000     0.851600000000     0.292940000000    -0.0640052  
C540     C      0.136900000000     0.833810000000     0.328330000000     0.0196169  
C541     C      0.153080000000     0.802840000000     0.317840000000    -0.0957159  
C542     C      0.151430000000     0.790210000000     0.270920000000     0.0183863  
C543     C      0.097790000000     0.857580000000     0.208830000000     0.022688   
C544     C      0.109410000000     0.858790000000     0.161340000000    -0.0656292  
C545     C      0.091250000000     0.876600000000     0.126480000000     0.0226852  
C546     C      0.061130000000     0.893910000000     0.138290000000    -0.104171   
C547     C      0.049530000000     0.892760000000     0.185750000000     0.0218071  
C548     C      0.067510000000     0.874690000000     0.220490000000    -0.0657922  
C549     C      0.143670000000     0.818250000000     0.724440000000    -0.0640079  
C550     C      0.113170000000     0.835220000000     0.713440000000     0.0202862  
C551     C      0.100710000000     0.833420000000     0.666430000000    -0.0646841  
C552     C      0.118530000000     0.815740000000     0.631190000000     0.0179272  
C553     C      0.149150000000     0.799040000000     0.642060000000    -0.0988238  
C554     C      0.161360000000     0.800230000000     0.689230000000     0.0178356  
C555     C      0.094490000000     0.854900000000     0.750610000000     0.022353   
C556     C      0.092870000000     0.843250000000     0.798050000000    -0.0664016  
C557     C      0.075390000000     0.861770000000     0.832840000000     0.0224456  
C558     C      0.058810000000     0.892300000000     0.821040000000    -0.104901   
C559     C      0.060280000000     0.903900000000     0.773590000000     0.0215652  
C560     C      0.078040000000     0.885540000000     0.738900000000    -0.0661396  
H1       H      0.911130000000     0.974220000000     0.911780000000     0.209446   
H2       H      0.048610000000     0.974030000000     0.911260000000     0.209332   
H3       H      0.980010000000     0.905270000000     0.048410000000     0.210105   
H4       H      0.980110000000     0.042660000000     0.048830000000     0.20968    
H5       H      0.911390000000     0.473990000000     0.048640000000     0.209381   
H6       H      0.980160000000     0.405310000000     0.911620000000     0.209994   
H7       H      0.048850000000     0.474190000000     0.048400000000     0.210138   
H8       H      0.979890000000     0.542710000000     0.911420000000     0.209616   
H9       H      0.480070000000     0.042620000000     0.049000000000     0.209635   
H10      H      0.411160000000     0.974220000000     0.911760000000     0.209529   
H11      H      0.479910000000     0.905200000000     0.048470000000     0.209708   
H12      H      0.548630000000     0.974140000000     0.911510000000     0.209708   
H13      H      0.480060000000     0.405410000000     0.911450000000     0.210023   
H14      H      0.411160000000     0.474170000000     0.048140000000     0.209588   
H15      H      0.480320000000     0.542800000000     0.911450000000     0.209881   
H16      H      0.548610000000     0.474020000000     0.048770000000     0.209618   
H17      H      0.156380000000     0.225180000000     0.411760000000     0.210076   
H18      H      0.228940000000     0.149480000000     0.551630000000     0.203272   
H19      H      0.303750000000     0.222580000000     0.411950000000     0.210003   
H20      H      0.231140000000     0.298760000000     0.551000000000     0.2042     
H21      H      0.193180000000     0.103510000000     0.486960000000     0.125241   
H22      H      0.265170000000     0.097540000000     0.486810000000     0.185413   
H23      H      0.345800000000     0.190320000000     0.506670000000     0.147906   
H24      H      0.352650000000     0.264350000000     0.449970000000     0.199042   
H25      H      0.266830000000     0.344510000000     0.486010000000     0.125254   
H26      H      0.194130000000     0.350710000000     0.483750000000     0.185903   
H27      H      0.114510000000     0.258640000000     0.508480000000     0.148787   
H28      H      0.107430000000     0.183030000000     0.449720000000     0.199612   
H29      H      0.352060000000     0.260270000000     0.509450000000     0.203375   
H30      H      0.152060000000     0.345590000000     0.478970000000     0.202997   
H31      H      0.107970000000     0.188320000000     0.509020000000     0.203803   
H32      H      0.307160000000     0.102100000000     0.479860000000     0.203443   
H33      H      0.156310000000     0.722280000000     0.411870000000     0.210279   
H34      H      0.232080000000     0.649530000000     0.551350000000     0.203573   
H35      H      0.303660000000     0.726090000000     0.411830000000     0.209776   
H36      H      0.227930000000     0.798770000000     0.551340000000     0.203652   
H37      H      0.198840000000     0.602210000000     0.487030000000     0.12504    
H38      H      0.270690000000     0.599260000000     0.484350000000     0.186371   
H39      H      0.346950000000     0.695290000000     0.508000000000     0.148111   
H40      H      0.350410000000     0.770210000000     0.448490000000     0.200057   
H41      H      0.261220000000     0.846180000000     0.484480000000     0.125233   
H42      H      0.188610000000     0.849050000000     0.485530000000     0.185569   
H43      H      0.112860000000     0.753290000000     0.507230000000     0.147996   
H44      H      0.109170000000     0.677630000000     0.450160000000     0.199986   
H45      H      0.350570000000     0.765470000000     0.507880000000     0.20365    
H46      H      0.146850000000     0.842180000000     0.479760000000     0.203104   
H47      H      0.109660000000     0.682750000000     0.509470000000     0.203836   
H48      H      0.312570000000     0.605790000000     0.479570000000     0.203551   
H49      H      0.803700000000     0.223660000000     0.412010000000     0.209984   
H50      H      0.729990000000     0.298760000000     0.551260000000     0.203591   
H51      H      0.656300000000     0.224240000000     0.411890000000     0.210001   
H52      H      0.729910000000     0.149460000000     0.551620000000     0.203379   
H53      H      0.764940000000     0.345020000000     0.486370000000     0.125231   
H54      H      0.692770000000     0.350080000000     0.485610000000     0.185794   
H55      H      0.613780000000     0.256470000000     0.507110000000     0.147895   
H56      H      0.607960000000     0.181460000000     0.449810000000     0.199422   
H57      H      0.695010000000     0.103060000000     0.486760000000     0.125322   
H58      H      0.767120000000     0.098020000000     0.486520000000     0.185506   
H59      H      0.846210000000     0.191790000000     0.506880000000     0.148039   
H60      H      0.852060000000     0.266360000000     0.450160000000     0.199505   
H61      H      0.608400000000     0.186340000000     0.509170000000     0.203603   
H62      H      0.809050000000     0.103310000000     0.479850000000     0.203176   
H63      H      0.851490000000     0.261990000000     0.509600000000     0.203505   
H64      H      0.650840000000     0.344730000000     0.479070000000     0.20332    
H65      H      0.730220000000     0.797680000000     0.411900000000     0.210088   
H66      H      0.655350000000     0.723900000000     0.551350000000     0.203602   
H67      H      0.729830000000     0.650280000000     0.411870000000     0.209897   
H68      H      0.804650000000     0.724030000000     0.551420000000     0.203341   
H69      H      0.608970000000     0.758790000000     0.486360000000     0.125238   
H70      H      0.604040000000     0.686580000000     0.486210000000     0.185615   
H71      H      0.697880000000     0.607700000000     0.506720000000     0.147835   
H72      H      0.772730000000     0.602030000000     0.449770000000     0.199249   
H73      H      0.851030000000     0.689240000000     0.486550000000     0.125338   
H74      H      0.856000000000     0.761370000000     0.485930000000     0.185633   
H75      H      0.762220000000     0.840230000000     0.507110000000     0.147912   
H76      H      0.687430000000     0.846000000000     0.450040000000     0.199516   
H77      H      0.767970000000     0.602470000000     0.509160000000     0.203334   
H78      H      0.850600000000     0.803290000000     0.479350000000     0.203168   
H79      H      0.691970000000     0.845460000000     0.509450000000     0.203565   
H80      H      0.609440000000     0.644670000000     0.479560000000     0.203183   
H81      H      0.377840000000     0.398080000000     0.255680000000     0.0459471  
H82      H      0.409800000000     0.428950000000     0.195350000000     0.032073   
H83      H      0.384330000000     0.352190000000     0.090960000000     0.0346989  
H84      H      0.353380000000     0.320640000000     0.151740000000     0.0457384  
H85      H      0.303490000000     0.320660000000     0.199380000000     0.0452736  
H86      H      0.272920000000     0.289240000000     0.260960000000     0.038047   
H87      H      0.348860000000     0.318430000000     0.364610000000     0.034015   
H88      H      0.379940000000     0.348640000000     0.303020000000     0.0454652  
H89      H      0.327830000000     0.346290000000     0.807930000000     0.0458338  
H90      H      0.359050000000     0.377560000000     0.868680000000     0.034604   
H91      H      0.434830000000     0.404960000000     0.763800000000     0.0329037  
H92      H      0.404250000000     0.372700000000     0.703480000000     0.0456903  
H93      H      0.354340000000     0.374230000000     0.656820000000     0.0452259  
H94      H      0.324160000000     0.343050000000     0.595330000000     0.0379497  
H95      H      0.297410000000     0.265760000000     0.698340000000     0.0381329  
H96      H      0.328790000000     0.296510000000     0.759810000000     0.0451118  
H97      H      0.380410000000     0.599780000000     0.303050000000     0.0452607  
H98      H      0.349400000000     0.630080000000     0.364650000000     0.0362192  
H99      H      0.273250000000     0.658990000000     0.261140000000     0.0369536  
H100     H      0.303770000000     0.627520000000     0.199570000000     0.045085   
H101     H      0.378210000000     0.550230000000     0.255810000000     0.0455425  
H102     H      0.410070000000     0.519280000000     0.195440000000     0.0323462  
H103     H      0.384520000000     0.595990000000     0.091000000000     0.0350353  
H104     H      0.353660000000     0.627590000000     0.151810000000     0.0459016  
H105     H      0.379690000000     0.551640000000     0.703060000000     0.0453855  
H106     H      0.410760000000     0.519780000000     0.763400000000     0.034026   
H107     H      0.384050000000     0.595190000000     0.869160000000     0.0323537  
H108     H      0.354010000000     0.627630000000     0.808510000000     0.0452492  
H109     H      0.304630000000     0.628030000000     0.759930000000     0.0451228  
H110     H      0.274430000000     0.660010000000     0.698650000000     0.0365845  
H111     H      0.351600000000     0.632820000000     0.595700000000     0.032941   
H112     H      0.382310000000     0.601960000000     0.657130000000     0.0445385  
H113     H      0.606260000000     0.627580000000     0.151460000000     0.0456697  
H114     H      0.575810000000     0.595480000000     0.090800000000     0.0336829  
H115     H      0.547460000000     0.520920000000     0.196920000000     0.0331838  
H116     H      0.578860000000     0.552440000000     0.257230000000     0.0457348  
H117     H      0.576950000000     0.603130000000     0.302670000000     0.04525    
H118     H      0.608060000000     0.633520000000     0.364120000000     0.0346127  
H119     H      0.686400000000     0.658370000000     0.261720000000     0.0371825  
H120     H      0.655710000000     0.626870000000     0.200400000000     0.0450327  
H121     H      0.607390000000     0.572330000000     0.657020000000     0.0447409  
H122     H      0.637490000000     0.603590000000     0.595430000000     0.0328861  
H123     H      0.665560000000     0.680040000000     0.698970000000     0.0364779  
H124     H      0.634290000000     0.649300000000     0.760450000000     0.0450853  
H125     H      0.634310000000     0.599630000000     0.808460000000     0.0458107  
H126     H      0.602300000000     0.569190000000     0.869260000000     0.0349042  
H127     H      0.526260000000     0.542990000000     0.764170000000     0.0327735  
H128     H      0.557600000000     0.574440000000     0.703800000000     0.045049   
H129     H      0.631950000000     0.345750000000     0.151040000000     0.0456316  
H130     H      0.599800000000     0.376070000000     0.090390000000     0.033587   
H131     H      0.525780000000     0.405320000000     0.196770000000     0.034274   
H132     H      0.557340000000     0.374000000000     0.257130000000     0.0458912  
H133     H      0.608230000000     0.376160000000     0.302090000000     0.0450259  
H134     H      0.639160000000     0.345620000000     0.363580000000     0.0345799  
H135     H      0.663650000000     0.266650000000     0.261980000000     0.0371955  
H136     H      0.631600000000     0.296750000000     0.200660000000     0.0452244  
H137     H      0.581870000000     0.398070000000     0.703750000000     0.0453542  
H138     H      0.550440000000     0.429410000000     0.764220000000     0.0341829  
H139     H      0.576540000000     0.353190000000     0.869100000000     0.033268   
H140     H      0.606910000000     0.321220000000     0.808270000000     0.0454913  
H141     H      0.656440000000     0.320950000000     0.760110000000     0.0451385  
H142     H      0.686660000000     0.289170000000     0.698660000000     0.0365331  
H143     H      0.610170000000     0.317620000000     0.595400000000     0.0329693  
H144     H      0.579390000000     0.348250000000     0.656990000000     0.0447651  
H145     H      0.531480000000     0.747850000000     0.953000000000     0.0458085  
H146     H      0.531550000000     0.809630000000     0.953200000000     0.0332867  
H147     H      0.427950000000     0.809610000000     0.004510000000     0.0335424  
H148     H      0.428280000000     0.747860000000     0.005720000000     0.0465744  
H149     H      0.531480000000     0.700530000000     0.006710000000     0.0465517  
H150     H      0.531760000000     0.638730000000     0.006650000000     0.0337648  
H151     H      0.428410000000     0.638350000000     0.954390000000     0.0317188  
H152     H      0.428520000000     0.700090000000     0.953060000000     0.0457293  
H153     H      0.428390000000     0.200170000000     0.006740000000     0.0464163  
H154     H      0.428190000000     0.138440000000     0.005500000000     0.0333097  
H155     H      0.531810000000     0.138630000000     0.954270000000     0.0341184  
H156     H      0.531600000000     0.200410000000     0.954020000000     0.0458129  
H157     H      0.531530000000     0.247830000000     0.007240000000     0.0464583  
H158     H      0.531670000000     0.309610000000     0.006850000000     0.0347436  
H159     H      0.428120000000     0.309640000000     0.955370000000     0.0327712  
H160     H      0.428380000000     0.247900000000     0.954270000000     0.0457533  
H161     H      0.400510000000     0.875830000000     0.257300000000     0.0458433  
H162     H      0.432460000000     0.906790000000     0.196980000000     0.0325981  
H163     H      0.358330000000     0.878160000000     0.090410000000     0.0336903  
H164     H      0.325840000000     0.848110000000     0.151050000000     0.0459811  
H165     H      0.349380000000     0.878280000000     0.302080000000     0.0459464  
H166     H      0.318720000000     0.847470000000     0.363600000000     0.0400225  
H167     H      0.294730000000     0.768400000000     0.261910000000     0.0378022  
H168     H      0.326440000000     0.798810000000     0.200560000000     0.045102   
H169     H      0.328660000000     0.796490000000     0.759320000000     0.0452716  
H170     H      0.296660000000     0.766460000000     0.697850000000     0.0380146  
H171     H      0.321930000000     0.845160000000     0.596210000000     0.0380961  
H172     H      0.352800000000     0.875620000000     0.657820000000     0.0450826  
H173     H      0.403380000000     0.873440000000     0.703320000000     0.0460033  
H174     H      0.434600000000     0.904970000000     0.763800000000     0.0343313  
H175     H      0.359960000000     0.876170000000     0.869560000000     0.0335957  
H176     H      0.328140000000     0.845620000000     0.808740000000     0.0454842  
H177     H      0.326510000000     0.100290000000     0.151540000000     0.045997   
H178     H      0.358800000000     0.070120000000     0.090850000000     0.0350156  
H179     H      0.432790000000     0.040930000000     0.197310000000     0.0334965  
H180     H      0.401070000000     0.072070000000     0.257690000000     0.0459841  
H181     H      0.350130000000     0.070100000000     0.302670000000     0.0455959  
H182     H      0.319560000000     0.101060000000     0.364140000000     0.0347557  
H183     H      0.295580000000     0.179980000000     0.262220000000     0.0372909  
H184     H      0.327240000000     0.149460000000     0.200940000000     0.0451407  
H185     H      0.353960000000     0.128050000000     0.808620000000     0.0456351  
H186     H      0.384630000000     0.096200000000     0.869360000000     0.0346154  
H187     H      0.410550000000     0.019940000000     0.764450000000     0.0328877  
H188     H      0.378850000000     0.051110000000     0.704150000000     0.0452366  
H189     H      0.380810000000     0.100690000000     0.657120000000     0.0450346  
H190     H      0.349480000000     0.130740000000     0.595560000000     0.033255   
H191     H      0.273420000000     0.159350000000     0.699340000000     0.0363485  
H192     H      0.304210000000     0.128100000000     0.760830000000     0.0448408  
H193     H      0.581710000000     0.097210000000     0.303570000000     0.0454974  
H194     H      0.612510000000     0.127770000000     0.365100000000     0.0339481  
H195     H      0.688200000000     0.157530000000     0.261390000000     0.0380641  
H196     H      0.657920000000     0.125750000000     0.199890000000     0.0455106  
H197     H      0.608050000000     0.125690000000     0.152410000000     0.0455301  
H198     H      0.576930000000     0.094400000000     0.091630000000     0.0333462  
H199     H      0.551650000000     0.017270000000     0.195590000000     0.0345453  
H200     H      0.583840000000     0.047910000000     0.255970000000     0.0466088  
H201     H      0.605310000000     0.074300000000     0.657720000000     0.0452797  
H202     H      0.636010000000     0.104880000000     0.596130000000     0.038073   
H203     H      0.662480000000     0.182820000000     0.698320000000     0.0378691  
H204     H      0.630600000000     0.152670000000     0.759850000000     0.045109   
H205     H      0.631140000000     0.103260000000     0.808670000000     0.0453819  
H206     H      0.599710000000     0.072250000000     0.869440000000     0.03323    
H207     H      0.524310000000     0.044350000000     0.764280000000     0.034369   
H208     H      0.555120000000     0.076360000000     0.703880000000     0.0460559  
H209     H      0.633100000000     0.847080000000     0.152090000000     0.0459101  
H210     H      0.601790000000     0.878270000000     0.091270000000     0.0350153  
H211     H      0.524460000000     0.903100000000     0.195130000000     0.0322454  
H212     H      0.555060000000     0.870900000000     0.255450000000     0.0461583  
H213     H      0.604200000000     0.872920000000     0.303310000000     0.0457138  
H214     H      0.634280000000     0.841740000000     0.364920000000     0.0340319  
H215     H      0.664300000000     0.766350000000     0.260950000000     0.038065   
H216     H      0.633000000000     0.797010000000     0.199330000000     0.0454392  
H217     H      0.580900000000     0.897760000000     0.703420000000     0.0458683  
H218     H      0.548860000000     0.928610000000     0.763730000000     0.0329014  
H219     H      0.576170000000     0.852960000000     0.868850000000     0.0334438  
H220     H      0.607240000000     0.821490000000     0.808140000000     0.0454108  
H221     H      0.657010000000     0.822300000000     0.759880000000     0.0448483  
H222     H      0.687690000000     0.790830000000     0.698450000000     0.0378012  
H223     H      0.610260000000     0.817380000000     0.595540000000     0.0381607  
H224     H      0.579160000000     0.847680000000     0.657000000000     0.0454707  
H225     H      0.753960000000     0.525330000000     0.951270000000     0.0460131  
H226     H      0.815720000000     0.525490000000     0.952470000000     0.0343072  
H227     H      0.815460000000     0.421880000000     0.003730000000     0.0333912  
H228     H      0.753700000000     0.422130000000     0.004030000000     0.0463178  
H229     H      0.706040000000     0.422280000000     0.951340000000     0.0460072  
H230     H      0.644270000000     0.422190000000     0.952650000000     0.0342564  
H231     H      0.644710000000     0.525760000000     0.004030000000     0.0332932  
H232     H      0.706460000000     0.525440000000     0.004210000000     0.0462588  
H233     H      0.206440000000     0.525960000000     0.003370000000     0.0465065  
H234     H      0.144680000000     0.526190000000     0.003410000000     0.0333707  
H235     H      0.144300000000     0.422840000000     0.951140000000     0.0330636  
H236     H      0.206070000000     0.423020000000     0.949640000000     0.0457701  
H237     H      0.253590000000     0.422660000000     0.002620000000     0.0462988  
H238     H      0.315340000000     0.422360000000     0.002590000000     0.0334431  
H239     H      0.315820000000     0.526110000000     0.951930000000     0.034471   
H240     H      0.254050000000     0.526010000000     0.950490000000     0.0461152  
H241     H      0.803480000000     0.321100000000     0.199530000000     0.0452621  
H242     H      0.772640000000     0.289810000000     0.260990000000     0.0379558  
H243     H      0.848110000000     0.319270000000     0.365150000000     0.0339279  
H244     H      0.879460000000     0.349330000000     0.303700000000     0.0456424  
H245     H      0.877810000000     0.398560000000     0.256050000000     0.0462906  
H246     H      0.910070000000     0.429190000000     0.195790000000     0.03307    
H247     H      0.884730000000     0.352240000000     0.091610000000     0.0347444  
H248     H      0.853510000000     0.320920000000     0.152320000000     0.0456779  
H249     H      0.827460000000     0.346300000000     0.808470000000     0.0457184  
H250     H      0.858890000000     0.377340000000     0.869270000000     0.0345845  
H251     H      0.934510000000     0.404840000000     0.764220000000     0.0321664  
H252     H      0.903720000000     0.372840000000     0.703840000000     0.0456606  
H253     H      0.853660000000     0.374710000000     0.657430000000     0.0454849  
H254     H      0.823400000000     0.343720000000     0.595810000000     0.0380634  
H255     H      0.796840000000     0.266080000000     0.698410000000     0.0378941  
H256     H      0.828280000000     0.296640000000     0.759980000000     0.0449718  
H257     H      0.828190000000     0.601870000000     0.152290000000     0.0456065  
H258     H      0.859490000000     0.570760000000     0.091490000000     0.033662   
H259     H      0.936770000000     0.545740000000     0.195330000000     0.0345991  
H260     H      0.906130000000     0.577920000000     0.255720000000     0.0465791  
H261     H      0.856930000000     0.575780000000     0.303480000000     0.0455286  
H262     H      0.826400000000     0.606610000000     0.365020000000     0.0340373  
H263     H      0.796300000000     0.682070000000     0.261190000000     0.0380423  
H264     H      0.828040000000     0.651770000000     0.199670000000     0.0456258  
H265     H      0.879800000000     0.599300000000     0.657530000000     0.0453238  
H266     H      0.849240000000     0.630050000000     0.595960000000     0.0381174  
H267     H      0.771430000000     0.656720000000     0.698250000000     0.0379459  
H268     H      0.801560000000     0.624810000000     0.759760000000     0.0451236  
H269     H      0.851100000000     0.625320000000     0.808450000000     0.0452731  
H270     H      0.882060000000     0.593830000000     0.869200000000     0.0323437  
H271     H      0.909500000000     0.518200000000     0.764120000000     0.0343478  
H272     H      0.877550000000     0.549090000000     0.703730000000     0.0461634  
H273     H      0.082350000000     0.596760000000     0.303870000000     0.0456605  
H274     H      0.113830000000     0.626590000000     0.365390000000     0.0335144  
H275     H      0.188420000000     0.657490000000     0.260810000000     0.0366035  
H276     H      0.157450000000     0.626430000000     0.199210000000     0.0449931  
H277     H      0.107040000000     0.626790000000     0.152700000000     0.0454655  
H278     H      0.075400000000     0.595920000000     0.091910000000     0.0334868  
H279     H      0.051330000000     0.517860000000     0.195030000000     0.0329952  
H280     H      0.083990000000     0.548030000000     0.255310000000     0.0462377  
H281     H      0.057620000000     0.573710000000     0.703110000000     0.0459459  
H282     H      0.026380000000     0.542080000000     0.763450000000     0.0333986  
H283     H      0.100870000000     0.570840000000     0.869420000000     0.0350214  
H284     H      0.132730000000     0.601500000000     0.808720000000     0.045759   
H285     H      0.131980000000     0.650830000000     0.759550000000     0.0451319  
H286     H      0.163660000000     0.681280000000     0.698130000000     0.0379112  
H287     H      0.138740000000     0.602710000000     0.596120000000     0.0379459  
H288     H      0.108210000000     0.571850000000     0.657640000000     0.0455451  
H289     H      0.132110000000     0.297060000000     0.200560000000     0.0452256  
H290     H      0.164160000000     0.266980000000     0.261910000000     0.0372703  
H291     H      0.140470000000     0.346450000000     0.363100000000     0.0348117  
H292     H      0.109520000000     0.376960000000     0.301580000000     0.0452094  
H293     H      0.058390000000     0.374700000000     0.257080000000     0.0460504  
H294     H      0.026620000000     0.405850000000     0.196750000000     0.0344397  
H295     H      0.100170000000     0.376100000000     0.089980000000     0.0336237  
H296     H      0.132510000000     0.345930000000     0.150600000000     0.0456343  
H297     H      0.106830000000     0.375440000000     0.657050000000     0.0448595  
H298     H      0.137210000000     0.344480000000     0.595470000000     0.032045   
H299     H      0.163290000000     0.266610000000     0.697970000000     0.0366575  
H300     H      0.131800000000     0.297180000000     0.759480000000     0.0451021  
H301     H      0.056570000000     0.373450000000     0.703380000000     0.0455291  
H302     H      0.025670000000     0.405300000000     0.763840000000     0.0324213  
H303     H      0.101350000000     0.377870000000     0.868850000000     0.0336459  
H304     H      0.132850000000     0.346930000000     0.808000000000     0.045579   
H305     H      0.705910000000     0.025590000000     0.009440000000     0.0467653  
H306     H      0.644150000000     0.025690000000     0.008010000000     0.0349437  
H307     H      0.644620000000     0.922150000000     0.956490000000     0.0326426  
H308     H      0.706380000000     0.922460000000     0.956440000000     0.0455737  
H309     H      0.753900000000     0.922590000000     0.009390000000     0.0467356  
H310     H      0.815660000000     0.922480000000     0.008170000000     0.03488    
H311     H      0.815290000000     0.026110000000     0.956980000000     0.0326406  
H312     H      0.753540000000     0.025800000000     0.956710000000     0.0455758  
H313     H      0.206400000000     0.922290000000     0.956520000000     0.0455221  
H314     H      0.144640000000     0.921970000000     0.956550000000     0.0326202  
H315     H      0.144150000000     0.025680000000     0.007390000000     0.0349702  
H316     H      0.205910000000     0.025600000000     0.008840000000     0.0467572  
H317     H      0.253520000000     0.025630000000     0.956020000000     0.0455651  
H318     H      0.315280000000     0.025970000000     0.956310000000     0.0325723  
H319     H      0.315690000000     0.922570000000     0.008390000000     0.0337314  
H320     H      0.253920000000     0.922640000000     0.009570000000     0.046547   
H321     H      0.031110000000     0.747670000000     0.952680000000     0.0457529  
H322     H      0.031330000000     0.809470000000     0.952790000000     0.0330979  
H323     H      0.927930000000     0.809730000000     0.004870000000     0.0326711  
H324     H      0.928100000000     0.747980000000     0.006140000000     0.0465769  
H325     H      0.031190000000     0.700470000000     0.006560000000     0.0464536  
H326     H      0.031410000000     0.638680000000     0.006560000000     0.0337852  
H327     H      0.927890000000     0.638340000000     0.954970000000     0.0320448  
H328     H      0.928050000000     0.700100000000     0.953590000000     0.0458385  
H329     H      0.031890000000     0.200280000000     0.953780000000     0.0459283  
H330     H      0.031960000000     0.138500000000     0.953980000000     0.0341577  
H331     H      0.928400000000     0.138520000000     0.005450000000     0.0333206  
H332     H      0.928740000000     0.200250000000     0.006740000000     0.0463918  
H333     H      0.928760000000     0.247930000000     0.954240000000     0.045775   
H334     H      0.928550000000     0.309650000000     0.955370000000     0.0327594  
H335     H      0.032170000000     0.309550000000     0.006560000000     0.0349027  
H336     H      0.031970000000     0.247750000000     0.006930000000     0.046576   
H337     H      0.852190000000     0.821660000000     0.151260000000     0.0455411  
H338     H      0.882490000000     0.853810000000     0.090560000000     0.0325994  
H339     H      0.911140000000     0.928240000000     0.196700000000     0.0341633  
H340     H      0.879860000000     0.896660000000     0.257090000000     0.0458794  
H341     H      0.882180000000     0.845860000000     0.302270000000     0.044961   
H342     H      0.851580000000     0.815020000000     0.363800000000     0.0345351  
H343     H      0.772860000000     0.790120000000     0.262010000000     0.0373023  
H344     H      0.803020000000     0.822060000000     0.200650000000     0.0453024  
H345     H      0.826580000000     0.797850000000     0.760270000000     0.0452416  
H346     H      0.794870000000     0.767510000000     0.698850000000     0.0364726  
H347     H      0.823210000000     0.843980000000     0.595500000000     0.0328437  
H348     H      0.853760000000     0.874860000000     0.657050000000     0.0445182  
H349     H      0.903580000000     0.872540000000     0.703780000000     0.0452237  
H350     H      0.934930000000     0.904000000000     0.764200000000     0.0340966  
H351     H      0.858840000000     0.877780000000     0.869210000000     0.0335322  
H352     H      0.826840000000     0.847370000000     0.808420000000     0.045488   
H353     H      0.850760000000     0.070830000000     0.302700000000     0.0452337  
H354     H      0.820280000000     0.101850000000     0.364180000000     0.0346627  
H355     H      0.795930000000     0.180540000000     0.262100000000     0.0372402  
H356     H      0.827520000000     0.149960000000     0.200780000000     0.0451256  
H357     H      0.826780000000     0.100750000000     0.151520000000     0.0459464  
H358     H      0.858910000000     0.070400000000     0.090820000000     0.034938   
H359     H      0.933040000000     0.041300000000     0.197130000000     0.0330052  
H360     H      0.901520000000     0.072630000000     0.257490000000     0.0456823  
H361     H      0.804520000000     0.128300000000     0.760650000000     0.0448824  
H362     H      0.773810000000     0.159630000000     0.699180000000     0.036389   
H363     H      0.850250000000     0.131540000000     0.595640000000     0.0330479  
H364     H      0.881480000000     0.101390000000     0.657220000000     0.0449246  
H365     H      0.879360000000     0.051590000000     0.703930000000     0.0450776  
H366     H      0.910860000000     0.020230000000     0.764250000000     0.032781   
H367     H      0.884650000000     0.096220000000     0.869420000000     0.0346144  
H368     H      0.854180000000     0.128240000000     0.808680000000     0.0456392  
H369     H      0.083190000000     0.048500000000     0.256050000000     0.0464075  
H370     H      0.051190000000     0.017700000000     0.195640000000     0.0344042  
H371     H      0.077090000000     0.094350000000     0.091290000000     0.033396   
H372     H      0.108020000000     0.125810000000     0.152100000000     0.04554    
H373     H      0.157710000000     0.125880000000     0.199970000000     0.045537   
H374     H      0.187900000000     0.157710000000     0.261490000000     0.0381503  
H375     H      0.111700000000     0.128660000000     0.364830000000     0.0339844  
H376     H      0.080980000000     0.098020000000     0.303270000000     0.0453155  
H377     H      0.104690000000     0.074920000000     0.657530000000     0.0450213  
H378     H      0.135320000000     0.105600000000     0.595980000000     0.0378359  
H379     H      0.161810000000     0.183450000000     0.698280000000     0.0364088  
H380     H      0.130000000000     0.153190000000     0.759820000000     0.0448128  
H381     H      0.130740000000     0.103660000000     0.808470000000     0.0453145  
H382     H      0.099550000000     0.072390000000     0.869210000000     0.0331857  
H383     H      0.024040000000     0.044490000000     0.764200000000     0.03426    
H384     H      0.054600000000     0.076760000000     0.703850000000     0.0458527  
H385     H      0.107760000000     0.875630000000     0.302280000000     0.0452194  
H386     H      0.137940000000     0.844540000000     0.363930000000     0.0346031  
H387     H      0.163410000000     0.766350000000     0.261640000000     0.0375673  
H388     H      0.132080000000     0.797000000000     0.200090000000     0.0453853  
H389     H      0.132870000000     0.846400000000     0.151140000000     0.0462104  
H390     H      0.101100000000     0.877120000000     0.090360000000     0.0351372  
H391     H      0.026270000000     0.905500000000     0.196070000000     0.0330296  
H392     H      0.057390000000     0.873820000000     0.256440000000     0.0456527  
H393     H      0.076970000000     0.845490000000     0.656780000000     0.0446722  
H394     H      0.108130000000     0.815070000000     0.595370000000     0.0327434  
H395     H      0.184960000000     0.787850000000     0.698810000000     0.0364827  
H396     H      0.154310000000     0.819410000000     0.760070000000     0.0448344  
H397     H      0.104700000000     0.819520000000     0.808280000000     0.0454019  
H398     H      0.074550000000     0.851890000000     0.868940000000     0.03348    
H399     H      0.048080000000     0.927450000000     0.763290000000     0.0326031  
H400     H      0.079230000000     0.895680000000     0.702980000000     0.0450477  
O1       O      0.047020000000     0.904930000000     0.902190000000    -0.36701    
O2       O      0.912610000000     0.043300000000     0.902900000000    -0.36639    
O3       O      0.941020000000     0.934260000000     0.844330000000    -0.365454   
O4       O      0.018260000000     0.014380000000     0.844310000000    -0.365354   
O5       O      0.048020000000     0.042430000000     0.902700000000    -0.367251   
O6       O      0.911450000000     0.906030000000     0.902770000000    -0.366703   
O7       O      0.940590000000     0.013570000000     0.844400000000    -0.365956   
O8       O      0.018800000000     0.934630000000     0.843900000000    -0.366114   
O9       O      0.979940000000     0.022540000000     0.931620000000    -0.505615   
O10      O      0.979760000000     0.925620000000     0.931410000000    -0.505646   
O11      O      0.931250000000     0.974160000000     0.931500000000    -0.650247   
O12      O      0.028560000000     0.974030000000     0.931120000000    -0.65005    
O13      O      0.911040000000     0.041320000000     0.057860000000    -0.366151   
O14      O      0.048830000000     0.906270000000     0.057120000000    -0.365822   
O15      O      0.872970000000     0.945140000000     0.982300000000    -0.369404   
O16      O      0.009200000000     0.080940000000     0.978860000000    -0.369122   
O17      O      0.086890000000     0.002950000000     0.981720000000    -0.369376   
O18      O      0.950640000000     0.867150000000     0.979580000000    -0.369602   
O19      O      0.940200000000     0.935190000000     0.115980000000    -0.365537   
O20      O      0.020310000000     0.012320000000     0.115860000000    -0.36538    
O21      O      0.911790000000     0.905780000000     0.057590000000    -0.366904   
O22      O      0.048380000000     0.042070000000     0.057460000000    -0.366642   
O23      O      0.873010000000     0.003360000000     0.980570000000    -0.369798   
O24      O      0.008870000000     0.867030000000     0.978650000000    -0.369389   
O25      O      0.086870000000     0.944730000000     0.979900000000    -0.369895   
O26      O      0.950970000000     0.081040000000     0.980610000000    -0.36993    
O27      O      0.940680000000     0.013040000000     0.116150000000    -0.365925   
O28      O      0.019410000000     0.934550000000     0.115640000000    -0.365972   
O29      O      0.028440000000     0.973880000000     0.028450000000    -0.505142   
O30      O      0.931520000000     0.974080000000     0.028820000000    -0.505139   
O31      O      0.979980000000     0.925370000000     0.028670000000    -0.650256   
O32      O      0.980060000000     0.022620000000     0.028950000000    -0.649951   
O33      O      0.009440000000     0.367160000000     0.981370000000    -0.369171   
O34      O      0.873060000000     0.502890000000     0.978320000000    -0.369281   
O35      O      0.912690000000     0.405060000000     0.057660000000    -0.366378   
O36      O      0.911230000000     0.406280000000     0.902800000000    -0.366317   
O37      O      0.940700000000     0.434580000000     0.844350000000    -0.365996   
O38      O      0.940750000000     0.434870000000     0.116010000000    -0.366117   
O39      O      0.873150000000     0.444660000000     0.979910000000    -0.369687   
O40      O      0.951210000000     0.367060000000     0.980160000000    -0.370028   
O41      O      0.931490000000     0.473890000000     0.931520000000    -0.505548   
O42      O      0.980230000000     0.425570000000     0.028640000000    -0.50503    
O43      O      0.931470000000     0.473980000000     0.028830000000    -0.649991   
O44      O      0.980120000000     0.425400000000     0.931390000000    -0.650729   
O45      O      0.950680000000     0.580940000000     0.980160000000    -0.369574   
O46      O      0.087070000000     0.445270000000     0.977960000000    -0.369547   
O47      O      0.941790000000     0.514390000000     0.115790000000    -0.365251   
O48      O      0.939670000000     0.512350000000     0.844240000000    -0.365628   
O49      O      0.019410000000     0.434920000000     0.844140000000    -0.365795   
O50      O      0.018930000000     0.434140000000     0.115790000000    -0.36505    
O51      O      0.047750000000     0.542900000000     0.057460000000    -0.366472   
O52      O      0.048710000000     0.541700000000     0.902530000000    -0.366086   
O53      O      0.019700000000     0.513110000000     0.115850000000    -0.365852   
O54      O      0.019300000000     0.513230000000     0.844150000000    -0.365485   
O55      O      0.911920000000     0.542360000000     0.057410000000    -0.366486   
O56      O      0.048680000000     0.406160000000     0.057320000000    -0.367007   
O57      O      0.048860000000     0.406470000000     0.902460000000    -0.366658   
O58      O      0.911470000000     0.541960000000     0.902640000000    -0.367153   
O59      O      0.008910000000     0.581090000000     0.981150000000    -0.369739   
O60      O      0.086940000000     0.503490000000     0.979470000000    -0.369747   
O61      O      0.028430000000     0.474200000000     0.931420000000    -0.505356   
O62      O      0.979940000000     0.522550000000     0.028620000000    -0.505195   
O63      O      0.028730000000     0.474160000000     0.028690000000    -0.650257   
O64      O      0.979940000000     0.522650000000     0.931260000000    -0.650595   
O65      O      0.372960000000     0.945130000000     0.981920000000    -0.369617   
O66      O      0.509120000000     0.081000000000     0.979060000000    -0.369214   
O67      O      0.410990000000     0.041170000000     0.057960000000    -0.366026   
O68      O      0.412580000000     0.043270000000     0.902970000000    -0.366342   
O69      O      0.440570000000     0.013550000000     0.844470000000    -0.365937   
O70      O      0.440640000000     0.012870000000     0.116250000000    -0.365268   
O71      O      0.450900000000     0.081030000000     0.980750000000    -0.370309   
O72      O      0.373000000000     0.003350000000     0.980570000000    -0.369806   
O73      O      0.479950000000     0.022590000000     0.931720000000    -0.505586   
O74      O      0.431610000000     0.974080000000     0.028850000000    -0.505315   
O75      O      0.480040000000     0.022600000000     0.029090000000    -0.649851   
O76      O      0.431260000000     0.974180000000     0.931520000000    -0.650262   
O77      O      0.586880000000     0.003040000000     0.981930000000    -0.369325   
O78      O      0.450660000000     0.867160000000     0.979950000000    -0.369772   
O79      O      0.520420000000     0.012180000000     0.115990000000    -0.365535   
O80      O      0.518310000000     0.014430000000     0.844460000000    -0.365246   
O81      O      0.441240000000     0.934160000000     0.844380000000    -0.365474   
O82      O      0.440340000000     0.935060000000     0.116050000000    -0.365432   
O83      O      0.548760000000     0.906090000000     0.057180000000    -0.365789   
O84      O      0.547450000000     0.905290000000     0.902350000000    -0.367107   
O85      O      0.519240000000     0.934260000000     0.115720000000    -0.366359   
O86      O      0.519210000000     0.935000000000     0.844080000000    -0.36606    
O87      O      0.548370000000     0.042070000000     0.057630000000    -0.36687    
O88      O      0.410810000000     0.906790000000     0.057640000000    -0.366444   
O89      O      0.411640000000     0.905930000000     0.902770000000    -0.366883   
O90      O      0.548090000000     0.042440000000     0.902870000000    -0.367214   
O91      O      0.586870000000     0.944820000000     0.980230000000    -0.369713   
O92      O      0.508890000000     0.867090000000     0.978540000000    -0.369529   
O93      O      0.479790000000     0.925650000000     0.931480000000    -0.505508   
O94      O      0.528500000000     0.973900000000     0.028590000000    -0.505301   
O95      O      0.479960000000     0.925320000000     0.028740000000    -0.649999   
O96      O      0.528560000000     0.974100000000     0.931320000000    -0.650355   
O97      O      0.373130000000     0.503320000000     0.977790000000    -0.369263   
O98      O      0.509030000000     0.367120000000     0.981660000000    -0.369393   
O99      O      0.411250000000     0.406540000000     0.902300000000    -0.366658   
O100     O      0.412260000000     0.405150000000     0.057130000000    -0.366274   
O101     O      0.440450000000     0.434680000000     0.115630000000    -0.366102   
O102     O      0.440970000000     0.434740000000     0.844000000000    -0.366157   
O103     O      0.450810000000     0.367150000000     0.979860000000    -0.369694   
O104     O      0.373050000000     0.445090000000     0.979230000000    -0.369967   
O105     O      0.479880000000     0.425520000000     0.028530000000    -0.505089   
O106     O      0.431580000000     0.474140000000     0.931190000000    -0.505486   
O107     O      0.480040000000     0.425490000000     0.931240000000    -0.650799   
O108     O      0.431300000000     0.474140000000     0.028460000000    -0.650063   
O109     O      0.586930000000     0.444920000000     0.978340000000    -0.369318   
O110     O      0.451040000000     0.581060000000     0.979970000000    -0.369964   
O111     O      0.520170000000     0.435470000000     0.844260000000    -0.365528   
O112     O      0.518500000000     0.434030000000     0.115900000000    -0.365396   
O113     O      0.440580000000     0.513440000000     0.115630000000    -0.365486   
O114     O      0.440420000000     0.512950000000     0.843940000000    -0.36555    
O115     O      0.549220000000     0.541450000000     0.902810000000    -0.366002   
O116     O      0.547270000000     0.543000000000     0.057780000000    -0.366769   
O117     O      0.519710000000     0.513220000000     0.844320000000    -0.366025   
O118     O      0.518760000000     0.513560000000     0.116060000000    -0.365519   
O119     O      0.548150000000     0.405680000000     0.902700000000    -0.366952   
O120     O      0.412200000000     0.542580000000     0.902300000000    -0.367164   
O121     O      0.412390000000     0.543010000000     0.057160000000    -0.365988   
O122     O      0.548230000000     0.405930000000     0.057530000000    -0.366986   
O123     O      0.587010000000     0.503140000000     0.980240000000    -0.370009   
O124     O      0.509270000000     0.581060000000     0.981080000000    -0.369577   
O125     O      0.479960000000     0.522490000000     0.028600000000    -0.505107   
O126     O      0.528530000000     0.474080000000     0.931600000000    -0.505321   
O127     O      0.480210000000     0.522720000000     0.931260000000    -0.650638   
O128     O      0.528560000000     0.474020000000     0.028910000000    -0.650005   
O129     O      0.164550000000     0.292710000000     0.559920000000    -0.356759   
O130     O      0.192500000000     0.261000000000     0.616370000000    -0.34273    
O131     O      0.163700000000     0.156240000000     0.399940000000    -0.349577   
O132     O      0.192870000000     0.186890000000     0.343540000000    -0.34158    
O133     O      0.162820000000     0.157200000000     0.560350000000    -0.353193   
O134     O      0.191570000000     0.188340000000     0.616630000000    -0.342267   
O135     O      0.166580000000     0.294200000000     0.399400000000    -0.345259   
O136     O      0.193300000000     0.261110000000     0.343330000000    -0.34189    
O137     O      0.120660000000     0.268510000000     0.477120000000    -0.340585   
O138     O      0.174600000000     0.335990000000     0.481010000000    -0.512987   
O139     O      0.119830000000     0.183690000000     0.479500000000    -0.513013   
O140     O      0.170490000000     0.113460000000     0.480930000000    -0.326165   
O141     O      0.175780000000     0.225050000000     0.527930000000    -0.468471   
O142     O      0.176090000000     0.224870000000     0.432320000000    -0.609572   
O143     O      0.296610000000     0.291310000000     0.399620000000    -0.349637   
O144     O      0.267450000000     0.260530000000     0.343340000000    -0.341603   
O145     O      0.296760000000     0.157120000000     0.560600000000    -0.355884   
O146     O      0.267130000000     0.187430000000     0.616870000000    -0.343047   
O147     O      0.293480000000     0.153500000000     0.400030000000    -0.345124   
O148     O      0.266800000000     0.186380000000     0.343690000000    -0.341986   
O149     O      0.296970000000     0.291170000000     0.560070000000    -0.35331    
O150     O      0.268090000000     0.260240000000     0.616470000000    -0.341341   
O151     O      0.340220000000     0.264300000000     0.479750000000    -0.51352    
O152     O      0.289540000000     0.334540000000     0.480190000000    -0.326271   
O153     O      0.339460000000     0.178700000000     0.476590000000    -0.340251   
O154     O      0.284800000000     0.112000000000     0.482780000000    -0.513255   
O155     O      0.284020000000     0.222980000000     0.432450000000    -0.610196   
O156     O      0.284120000000     0.223150000000     0.528100000000    -0.468423   
O157     O      0.231050000000     0.279120000000     0.428430000000    -0.474074   
O158     O      0.229090000000     0.169180000000     0.531050000000    -0.622853   
O159     O      0.230910000000     0.278960000000     0.530630000000    -0.62311    
O160     O      0.229080000000     0.168750000000     0.428850000000    -0.473879   
O161     O      0.160870000000     0.788870000000     0.560240000000    -0.356339   
O162     O      0.191660000000     0.759840000000     0.616620000000    -0.343201   
O163     O      0.165910000000     0.654300000000     0.399810000000    -0.349882   
O164     O      0.193710000000     0.686210000000     0.343420000000    -0.342221   
O165     O      0.165520000000     0.654650000000     0.560290000000    -0.353122   
O166     O      0.192910000000     0.687020000000     0.616530000000    -0.341924   
O167     O      0.164220000000     0.792210000000     0.399710000000    -0.34516    
O168     O      0.192240000000     0.760360000000     0.343470000000    -0.341103   
O169     O      0.118780000000     0.763930000000     0.476290000000    -0.341369   
O170     O      0.169750000000     0.833530000000     0.482170000000    -0.512818   
O171     O      0.121620000000     0.678740000000     0.479860000000    -0.513082   
O172     O      0.175740000000     0.611020000000     0.480530000000    -0.326515   
O173     O      0.175840000000     0.722700000000     0.528010000000    -0.468422   
O174     O      0.176030000000     0.722690000000     0.432400000000    -0.609739   
O175     O      0.292550000000     0.795230000000     0.399680000000    -0.349732   
O176     O      0.266360000000     0.761780000000     0.343550000000    -0.341633   
O177     O      0.299030000000     0.659280000000     0.560320000000    -0.356238   
O178     O      0.268230000000     0.688360000000     0.616640000000    -0.343064   
O179     O      0.297310000000     0.657400000000     0.399750000000    -0.345642   
O180     O      0.267620000000     0.687590000000     0.343400000000    -0.341714   
O181     O      0.294660000000     0.793470000000     0.560190000000    -0.352389   
O182     O      0.267220000000     0.761150000000     0.616450000000    -0.342157   
O183     O      0.338290000000     0.769290000000     0.478480000000    -0.513813   
O184     O      0.284590000000     0.837200000000     0.481160000000    -0.327402   
O185     O      0.341360000000     0.683830000000     0.477520000000    -0.341106   
O186     O      0.289710000000     0.614630000000     0.481560000000    -0.513099   
O187     O      0.283950000000     0.725560000000     0.432370000000    -0.609744   
O188     O      0.284150000000     0.725600000000     0.527980000000    -0.468633   
O189     O      0.228540000000     0.779200000000     0.428600000000    -0.473855   
O190     O      0.231490000000     0.669260000000     0.530840000000    -0.62281    
O191     O      0.228520000000     0.779040000000     0.530830000000    -0.622857   
O192     O      0.231450000000     0.668840000000     0.428700000000    -0.474123   
O193     O      0.797490000000     0.157810000000     0.560540000000    -0.356063   
O194     O      0.767500000000     0.187730000000     0.616840000000    -0.343234   
O195     O      0.795820000000     0.292120000000     0.399810000000    -0.349722   
O196     O      0.767080000000     0.261010000000     0.343460000000    -0.341666   
O197     O      0.796150000000     0.291950000000     0.560260000000    -0.353114   
O198     O      0.767780000000     0.260490000000     0.616580000000    -0.341809   
O199     O      0.794180000000     0.154270000000     0.399990000000    -0.345196   
O200     O      0.767080000000     0.186830000000     0.343680000000    -0.341789   
O201     O      0.840010000000     0.180480000000     0.476520000000    -0.340704   
O202     O      0.786510000000     0.112820000000     0.482650000000    -0.512907   
O203     O      0.839620000000     0.266000000000     0.479910000000    -0.513319   
O204     O      0.787790000000     0.335420000000     0.480360000000    -0.326121   
O205     O      0.784130000000     0.223900000000     0.528130000000    -0.468539   
O206     O      0.783960000000     0.223800000000     0.432510000000    -0.609934   
O207     O      0.664440000000     0.155560000000     0.399990000000    -0.349675   
O208     O      0.693150000000     0.186650000000     0.343590000000    -0.341578   
O209     O      0.662610000000     0.290690000000     0.560190000000    -0.356067   
O210     O      0.692500000000     0.260770000000     0.616600000000    -0.343193   
O211     O      0.665620000000     0.293470000000     0.399640000000    -0.345367   
O212     O      0.692820000000     0.260870000000     0.343480000000    -0.341941   
O213     O      0.663590000000     0.156410000000     0.560410000000    -0.35306    
O214     O      0.691940000000     0.187950000000     0.616660000000    -0.342033   
O215     O      0.620340000000     0.182090000000     0.479610000000    -0.513327   
O216     O      0.672140000000     0.112650000000     0.480920000000    -0.326162   
O217     O      0.619940000000     0.267490000000     0.476510000000    -0.340472   
O218     O      0.673390000000     0.335260000000     0.481900000000    -0.513126   
O219     O      0.676020000000     0.224170000000     0.432430000000    -0.6098     
O220     O      0.675780000000     0.224270000000     0.528060000000    -0.468572   
O221     O      0.729780000000     0.168810000000     0.428850000000    -0.473752   
O222     O      0.730090000000     0.278990000000     0.530810000000    -0.622871   
O223     O      0.729820000000     0.169170000000     0.531060000000    -0.622893   
O224     O      0.730210000000     0.279200000000     0.428610000000    -0.473871   
O225     O      0.796460000000     0.791460000000     0.560320000000    -0.356227   
O226     O      0.766530000000     0.761530000000     0.616680000000    -0.343274   
O227     O      0.661760000000     0.789650000000     0.399750000000    -0.349556   
O228     O      0.692920000000     0.760930000000     0.343430000000    -0.34158    
O229     O      0.662010000000     0.790090000000     0.560200000000    -0.353166   
O230     O      0.693540000000     0.761820000000     0.616540000000    -0.341891   
O231     O      0.799460000000     0.788420000000     0.399780000000    -0.345359   
O232     O      0.766960000000     0.761180000000     0.343550000000    -0.341844   
O233     O      0.773320000000     0.834090000000     0.476570000000    -0.340702   
O234     O      0.841150000000     0.780730000000     0.482170000000    -0.512982   
O235     O      0.687900000000     0.833570000000     0.479800000000    -0.513305   
O236     O      0.618540000000     0.781660000000     0.480390000000    -0.326061   
O237     O      0.730110000000     0.778190000000     0.528040000000    -0.468572   
O238     O      0.730140000000     0.777950000000     0.432420000000    -0.609797   
O239     O      0.798510000000     0.658490000000     0.399870000000    -0.349715   
O240     O      0.767330000000     0.687120000000     0.343500000000    -0.341707   
O241     O      0.663800000000     0.656360000000     0.560330000000    -0.3561     
O242     O      0.693620000000     0.686400000000     0.616690000000    -0.343125   
O243     O      0.660370000000     0.659780000000     0.399780000000    -0.345328   
O244     O      0.692940000000     0.686910000000     0.343520000000    -0.341837   
O245     O      0.797740000000     0.657710000000     0.560290000000    -0.353036   
O246     O      0.766240000000     0.686080000000     0.616570000000    -0.341818   
O247     O      0.772140000000     0.614420000000     0.479570000000    -0.513002   
O248     O      0.841480000000     0.666350000000     0.480750000000    -0.326247   
O249     O      0.686680000000     0.613900000000     0.476270000000    -0.340757   
O250     O      0.618890000000     0.667230000000     0.482370000000    -0.513106   
O251     O      0.729910000000     0.670000000000     0.432410000000    -0.60987    
O252     O      0.729900000000     0.669840000000     0.528050000000    -0.468436   
O253     O      0.785220000000     0.723860000000     0.428700000000    -0.473826   
O254     O      0.675090000000     0.724050000000     0.530860000000    -0.623009   
O255     O      0.784910000000     0.723940000000     0.530900000000    -0.622719   
O256     O      0.674830000000     0.724120000000     0.428670000000    -0.47385    
Zr1      Zr     0.979820000000     0.974130000000     0.883110000000     1.41675    
Zr2      Zr     0.931740000000     0.022380000000     0.980300000000     1.42461    
Zr3      Zr     0.028140000000     0.925680000000     0.979730000000     1.42453    
Zr4      Zr     0.931600000000     0.925870000000     0.980190000000     1.4253     
Zr5      Zr     0.028250000000     0.022220000000     0.980070000000     1.42501    
Zr6      Zr     0.980070000000     0.973920000000     0.077030000000     1.4176     
Zr7      Zr     0.931890000000     0.425680000000     0.980180000000     1.42479    
Zr8      Zr     0.931690000000     0.522200000000     0.979990000000     1.42489    
Zr9      Zr     0.028460000000     0.425920000000     0.979940000000     1.42487    
Zr10     Zr     0.980140000000     0.474060000000     0.076990000000     1.417      
Zr11     Zr     0.979930000000     0.473990000000     0.883110000000     1.41797    
Zr12     Zr     0.028190000000     0.522450000000     0.980050000000     1.42487    
Zr13     Zr     0.431740000000     0.022370000000     0.980370000000     1.42503    
Zr14     Zr     0.528240000000     0.022280000000     0.980240000000     1.42486    
Zr15     Zr     0.431590000000     0.925890000000     0.980220000000     1.42494    
Zr16     Zr     0.480120000000     0.973850000000     0.077110000000     1.41811    
Zr17     Zr     0.479870000000     0.974180000000     0.883210000000     1.41696    
Zr18     Zr     0.528160000000     0.925720000000     0.979850000000     1.42455    
Zr19     Zr     0.431700000000     0.425860000000     0.979780000000     1.42469    
Zr20     Zr     0.528230000000     0.425790000000     0.980090000000     1.42467    
Zr21     Zr     0.431850000000     0.522420000000     0.979740000000     1.42503    
Zr22     Zr     0.480150000000     0.474110000000     0.883020000000     1.41781    
Zr23     Zr     0.479820000000     0.473980000000     0.076920000000     1.41745    
Zr24     Zr     0.528330000000     0.522320000000     0.980250000000     1.4246     
Zr25     Zr     0.182130000000     0.275280000000     0.479710000000     1.29366    
Zr26     Zr     0.180360000000     0.174470000000     0.480130000000     1.29457    
Zr27     Zr     0.279690000000     0.273530000000     0.479900000000     1.29479    
Zr28     Zr     0.277930000000     0.172760000000     0.480200000000     1.29376    
Zr29     Zr     0.229910000000     0.224150000000     0.570440000000     1.26083    
Zr30     Zr     0.230080000000     0.223860000000     0.389660000000     1.25811    
Zr31     Zr     0.179890000000     0.773220000000     0.479940000000     1.29343    
Zr32     Zr     0.182540000000     0.672440000000     0.480050000000     1.29477    
Zr33     Zr     0.277410000000     0.775820000000     0.479950000000     1.29438    
Zr34     Zr     0.280150000000     0.675040000000     0.480000000000     1.29355    
Zr35     Zr     0.230000000000     0.724150000000     0.570410000000     1.26108    
Zr36     Zr     0.229990000000     0.724000000000     0.389660000000     1.25803    
Zr37     Zr     0.778600000000     0.173460000000     0.480170000000     1.29352    
Zr38     Zr     0.778940000000     0.274260000000     0.480050000000     1.29472    
Zr39     Zr     0.681010000000     0.173810000000     0.480180000000     1.2948     
Zr40     Zr     0.681350000000     0.274610000000     0.479900000000     1.29342    
Zr41     Zr     0.729940000000     0.224120000000     0.570500000000     1.26132    
Zr42     Zr     0.730010000000     0.223960000000     0.389720000000     1.25783    
Zr43     Zr     0.780520000000     0.772690000000     0.480010000000     1.29366    
Zr44     Zr     0.679710000000     0.772880000000     0.480020000000     1.29471    
Zr45     Zr     0.780310000000     0.675100000000     0.480070000000     1.29477    
Zr46     Zr     0.679510000000     0.675290000000     0.479990000000     1.29353    
Zr47     Zr     0.729990000000     0.724020000000     0.570460000000     1.26115    
Zr48     Zr     0.730030000000     0.723970000000     0.389680000000     1.25795    


