data_structure

_audit_creation_method RASPA-1.0
_audit_creation_date 2023-5-23
_audit_author_name 'Poobodin Mano'

_cell_length_a    30.2688
_cell_length_b    30.2754
_cell_length_c    43.2139
_cell_angle_alpha 90.0001
_cell_angle_beta  89.9998
_cell_angle_gamma 89.9992
_cell_volume      39601.2

_symmetry_cell_setting          triclinic
_symmetry_space_group_name_Hall 'P 1'
_symmetry_space_group_name_H-M  'P 1'
_symmetry_Int_Tables_number     1

_symmetry_equiv_pos_as_xyz 'x,y,z'

loop_
_atom_site_label
_atom_site_type_symbol
_atom_site_fract_x
_atom_site_fract_y
_atom_site_fract_z
_atom_site_charge
C1       C      0.070560000000     0.903870000000     0.409320000000     0.393558   
C2       C      0.911530000000     0.066190000000     0.409450000000     0.393663   
C3       C      0.910900000000     0.904450000000     0.409390000000     0.393317   
C4       C      0.070610000000     0.066110000000     0.409390000000     0.393774   
C5       C      0.909880000000     0.064280000000     0.067060000000     0.393627   
C6       C      0.072440000000     0.905580000000     0.066910000000     0.393945   
C7       C      0.832280000000     0.985070000000     0.489320000000     0.40257    
C8       C      0.991130000000     0.143830000000     0.487940000000     0.402247   
C9       C      0.149900000000     0.984960000000     0.989040000000     0.40074    
C10      C      0.991030000000     0.826160000000     0.987670000000     0.400448   
C11      C      0.910760000000     0.904670000000     0.067010000000     0.393509   
C12      C      0.072310000000     0.064370000000     0.067000000000     0.393756   
C13      C      0.991140000000     0.326160000000     0.488750000000     0.402298   
C14      C      0.832280000000     0.484930000000     0.487140000000     0.402775   
C15      C      0.910990000000     0.404530000000     0.066990000000     0.39283    
C16      C      0.910460000000     0.404920000000     0.409370000000     0.394212   
C17      C      0.991020000000     0.643820000000     0.988490000000     0.400355   
C18      C      0.149910000000     0.485040000000     0.986860000000     0.400879   
C19      C      0.911790000000     0.566370000000     0.066890000000     0.393313   
C20      C      0.909890000000     0.564370000000     0.409290000000     0.394228   
C21      C      0.071690000000     0.404960000000     0.409280000000     0.393919   
C22      C      0.071280000000     0.404460000000     0.066910000000     0.392918   
C23      C      0.071340000000     0.565580000000     0.066840000000     0.393198   
C24      C      0.071650000000     0.564990000000     0.409240000000     0.393904   
C25      C      0.332280000000     0.984970000000     0.489050000000     0.402643   
C26      C      0.491050000000     0.143830000000     0.487950000000     0.402386   
C27      C      0.409820000000     0.064330000000     0.067000000000     0.393865   
C28      C      0.411570000000     0.066120000000     0.409390000000     0.393429   
C29      C      0.649900000000     0.985080000000     0.989320000000     0.400476   
C30      C      0.491160000000     0.826170000000     0.987670000000     0.400486   
C31      C      0.572260000000     0.064320000000     0.067080000000     0.393486   
C32      C      0.570670000000     0.066180000000     0.409470000000     0.393626   
C33      C      0.411600000000     0.903900000000     0.409330000000     0.393481   
C34      C      0.409780000000     0.905550000000     0.066920000000     0.393998   
C35      C      0.571460000000     0.904720000000     0.067020000000     0.39347    
C36      C      0.571260000000     0.904440000000     0.409410000000     0.39364    
C37      C      0.332290000000     0.485040000000     0.486860000000     0.402627   
C38      C      0.491060000000     0.326170000000     0.488750000000     0.402538   
C39      C      0.410480000000     0.404960000000     0.409300000000     0.393987   
C40      C      0.410920000000     0.404460000000     0.066910000000     0.39292    
C41      C      0.649910000000     0.484930000000     0.987130000000     0.400834   
C42      C      0.491170000000     0.643830000000     0.988470000000     0.400463   
C43      C      0.571710000000     0.404900000000     0.409350000000     0.393872   
C44      C      0.571240000000     0.404580000000     0.066980000000     0.392906   
C45      C      0.410820000000     0.565560000000     0.066830000000     0.393199   
C46      C      0.410560000000     0.565010000000     0.409220000000     0.393759   
C47      C      0.572320000000     0.564350000000     0.409280000000     0.39397    
C48      C      0.570370000000     0.566420000000     0.066880000000     0.393199   
C49      C      0.163070000000     0.312660000000     0.318460000000     0.381471   
C50      C      0.164750000000     0.155660000000     0.157800000000     0.380955   
C51      C      0.162570000000     0.157900000000     0.318570000000     0.378935   
C52      C      0.164340000000     0.313730000000     0.157710000000     0.382559   
C53      C      0.317940000000     0.313640000000     0.157700000000     0.380036   
C54      C      0.319490000000     0.157860000000     0.318600000000     0.379359   
C55      C      0.317260000000     0.155520000000     0.157780000000     0.381952   
C56      C      0.319170000000     0.312580000000     0.318490000000     0.378344   
C57      C      0.162640000000     0.812100000000     0.318550000000     0.379095   
C58      C      0.164320000000     0.656330000000     0.157650000000     0.380309   
C59      C      0.163030000000     0.657340000000     0.318440000000     0.378185   
C60      C      0.164940000000     0.814410000000     0.157720000000     0.381998   
C61      C      0.317380000000     0.814310000000     0.157750000000     0.380921   
C62      C      0.319110000000     0.657360000000     0.318450000000     0.379445   
C63      C      0.317720000000     0.656230000000     0.157620000000     0.381419   
C64      C      0.319580000000     0.812120000000     0.318530000000     0.378048   
C65      C      0.819500000000     0.157930000000     0.318650000000     0.379363   
C66      C      0.817930000000     0.313710000000     0.157750000000     0.379837   
C67      C      0.819130000000     0.312610000000     0.318540000000     0.378617   
C68      C      0.817300000000     0.155530000000     0.157830000000     0.381637   
C69      C      0.664730000000     0.155640000000     0.157860000000     0.38046    
C70      C      0.663120000000     0.312600000000     0.318550000000     0.379691   
C71      C      0.664410000000     0.313830000000     0.157730000000     0.381228   
C72      C      0.662630000000     0.157920000000     0.318640000000     0.37826    
C73      C      0.818660000000     0.812890000000     0.318600000000     0.379265   
C74      C      0.662260000000     0.811760000000     0.157800000000     0.380447   
C75      C      0.663500000000     0.812940000000     0.318590000000     0.377834   
C76      C      0.820030000000     0.811620000000     0.157780000000     0.381728   
C77      C      0.820390000000     0.658740000000     0.157710000000     0.380204   
C78      C      0.664010000000     0.656410000000     0.318500000000     0.379485   
C79      C      0.661690000000     0.658880000000     0.157680000000     0.381428   
C80      C      0.818190000000     0.656370000000     0.318490000000     0.378595   
C81      C      0.357120000000     0.350320000000     0.081410000000     0.0302791  
C82      C      0.394790000000     0.390300000000     0.120030000000     0.0301281  
C83      C      0.371230000000     0.367620000000     0.142780000000     0.0261894  
C84      C      0.333580000000     0.327440000000     0.104250000000     0.0285571  
C85      C      0.334060000000     0.327090000000     0.371940000000     0.0273127  
C86      C      0.372420000000     0.366600000000     0.333400000000     0.0249049  
C87      C      0.395320000000     0.389900000000     0.356170000000     0.0296382  
C88      C      0.357020000000     0.350510000000     0.394790000000     0.0294482  
C89      C      0.357040000000     0.619730000000     0.081320000000     0.0303526  
C90      C      0.394520000000     0.579550000000     0.119940000000     0.0294392  
C91      C      0.370930000000     0.602190000000     0.142690000000     0.0286235  
C92      C      0.333470000000     0.642570000000     0.104170000000     0.0289504  
C93      C      0.357110000000     0.619470000000     0.394720000000     0.0292686  
C94      C      0.395370000000     0.580070000000     0.356090000000     0.0286714  
C95      C      0.372430000000     0.603370000000     0.333330000000     0.0257565  
C96      C      0.334120000000     0.642890000000     0.371890000000     0.0273214  
C97      C      0.584090000000     0.582990000000     0.119990000000     0.0294044  
C98      C      0.624540000000     0.620200000000     0.081380000000     0.0301863  
C99      C      0.647610000000     0.643530000000     0.104220000000     0.0289293  
C100     C      0.606980000000     0.606350000000     0.142740000000     0.0285597  
C101     C      0.626810000000     0.617780000000     0.394780000000     0.0292803  
C102     C      0.587610000000     0.579300000000     0.356140000000     0.0285625  
C103     C      0.610670000000     0.602470000000     0.333380000000     0.0258834  
C104     C      0.649990000000     0.640990000000     0.371940000000     0.0274332  
C105     C      0.625020000000     0.350400000000     0.081460000000     0.0301157  
C106     C      0.587570000000     0.390560000000     0.120100000000     0.0292351  
C107     C      0.611180000000     0.367900000000     0.142840000000     0.0283283  
C108     C      0.648610000000     0.327540000000     0.104290000000     0.0288407  
C109     C      0.648140000000     0.327040000000     0.372000000000     0.0275068  
C110     C      0.609820000000     0.366570000000     0.333460000000     0.0259973  
C111     C      0.586890000000     0.389850000000     0.356230000000     0.0288148  
C112     C      0.625170000000     0.350450000000     0.394850000000     0.0294003  
C113     C      0.530160000000     0.757970000000     0.987860000000     0.0284268  
C114     C      0.452180000000     0.757960000000     0.487940000000     0.0296669  
C115     C      0.452190000000     0.712030000000     0.488250000000     0.029707   
C116     C      0.530160000000     0.712030000000     0.988170000000     0.0284706  
C117     C      0.452060000000     0.212040000000     0.988230000000     0.0282972  
C118     C      0.530040000000     0.212040000000     0.488290000000     0.0296212  
C119     C      0.530040000000     0.257970000000     0.488600000000     0.0296492  
C120     C      0.452060000000     0.257970000000     0.988550000000     0.0283206  
C121     C      0.355930000000     0.851480000000     0.081430000000     0.0307428  
C122     C      0.393380000000     0.891740000000     0.120030000000     0.0307008  
C123     C      0.370040000000     0.868880000000     0.142800000000     0.0265748  
C124     C      0.332610000000     0.828430000000     0.104290000000     0.0290404  
C125     C      0.373430000000     0.865560000000     0.333440000000     0.0248759  
C126     C      0.334940000000     0.826210000000     0.371990000000     0.0269199  
C127     C      0.358140000000     0.849420000000     0.394830000000     0.0290825  
C128     C      0.396590000000     0.888640000000     0.356200000000     0.0294335  
C129     C      0.393320000000     0.078090000000     0.120110000000     0.0298024  
C130     C      0.355980000000     0.118410000000     0.081490000000     0.0306098  
C131     C      0.332610000000     0.141440000000     0.104330000000     0.0292785  
C132     C      0.369920000000     0.100930000000     0.142860000000     0.0289112  
C133     C      0.358130000000     0.120630000000     0.394890000000     0.0289653  
C134     C      0.396540000000     0.081370000000     0.356260000000     0.0286123  
C135     C      0.373360000000     0.104440000000     0.333500000000     0.0259     
C136     C      0.334920000000     0.143830000000     0.372050000000     0.027097   
C137     C      0.612030000000     0.101070000000     0.142950000000     0.0263858  
C138     C      0.649440000000     0.141470000000     0.104410000000     0.0288182  
C139     C      0.626090000000     0.118410000000     0.081580000000     0.0306287  
C140     C      0.588670000000     0.078180000000     0.120190000000     0.0304601  
C141     C      0.585660000000     0.081430000000     0.356340000000     0.0296384  
C142     C      0.624120000000     0.120670000000     0.394960000000     0.0290948  
C143     C      0.647310000000     0.143860000000     0.372100000000     0.0271656  
C144     C      0.608800000000     0.104500000000     0.333570000000     0.0250313  
C145     C      0.585480000000     0.888480000000     0.120140000000     0.0304176  
C146     C      0.625640000000     0.850970000000     0.081520000000     0.0306674  
C147     C      0.648510000000     0.827450000000     0.104360000000     0.0289391  
C148     C      0.608170000000     0.864940000000     0.142890000000     0.0265703  
C149     C      0.625670000000     0.850910000000     0.394900000000     0.0290983  
C150     C      0.586310000000     0.889230000000     0.356280000000     0.0296278  
C151     C      0.609570000000     0.866270000000     0.333520000000     0.0249716  
C152     C      0.649050000000     0.827900000000     0.372050000000     0.027058   
C153     C      0.764070000000     0.445940000000     0.486640000000     0.0297769  
C154     C      0.764070000000     0.523910000000     0.986710000000     0.0283723  
C155     C      0.718130000000     0.523910000000     0.986700000000     0.0284345  
C156     C      0.718120000000     0.445940000000     0.486640000000     0.0297365  
C157     C      0.218130000000     0.446060000000     0.486340000000     0.0297763  
C158     C      0.218120000000     0.524020000000     0.986290000000     0.0285345  
C159     C      0.264070000000     0.524030000000     0.986290000000     0.0285011  
C160     C      0.264070000000     0.446070000000     0.486340000000     0.029831   
C161     C      0.894780000000     0.390420000000     0.120110000000     0.0298205  
C162     C      0.857190000000     0.350380000000     0.081480000000     0.030157   
C163     C      0.833630000000     0.327500000000     0.104310000000     0.0284263  
C164     C      0.871210000000     0.367730000000     0.142850000000     0.0259619  
C165     C      0.895290000000     0.389890000000     0.356240000000     0.0298787  
C166     C      0.856980000000     0.350490000000     0.394850000000     0.0295771  
C167     C      0.834020000000     0.327090000000     0.371990000000     0.0275217  
C168     C      0.872380000000     0.366610000000     0.333470000000     0.0253371  
C169     C      0.857640000000     0.620160000000     0.081400000000     0.0302766  
C170     C      0.897970000000     0.582830000000     0.120000000000     0.0303793  
C171     C      0.875060000000     0.606150000000     0.142770000000     0.0260944  
C172     C      0.834550000000     0.643480000000     0.104250000000     0.0286123  
C173     C      0.894610000000     0.579310000000     0.356160000000     0.0297433  
C174     C      0.855430000000     0.617820000000     0.394790000000     0.0295974  
C175     C      0.832240000000     0.641020000000     0.371940000000     0.0273195  
C176     C      0.871560000000     0.602470000000     0.333400000000     0.0253311  
C177     C      0.125130000000     0.619730000000     0.081340000000     0.0303936  
C178     C      0.087530000000     0.579660000000     0.119950000000     0.0303651  
C179     C      0.111080000000     0.602320000000     0.142710000000     0.0262802  
C180     C      0.148670000000     0.642590000000     0.104190000000     0.0286195  
C181     C      0.125120000000     0.619430000000     0.394730000000     0.0293902  
C182     C      0.086840000000     0.580030000000     0.356100000000     0.0295519  
C183     C      0.109760000000     0.603330000000     0.333340000000     0.0250551  
C184     C      0.148090000000     0.642840000000     0.371880000000     0.0273438  
C185     C      0.125080000000     0.350310000000     0.081410000000     0.0299641  
C186     C      0.087440000000     0.390350000000     0.120030000000     0.0285897  
C187     C      0.111010000000     0.367680000000     0.142780000000     0.0284336  
C188     C      0.148630000000     0.327460000000     0.104260000000     0.0289183  
C189     C      0.109780000000     0.366630000000     0.333370000000     0.0277286  
C190     C      0.148110000000     0.327100000000     0.371910000000     0.0279446  
C191     C      0.125140000000     0.350510000000     0.394760000000     0.0294385  
C192     C      0.086860000000     0.389920000000     0.356140000000     0.0283727  
C193     C      0.764060000000     0.024070000000     0.489770000000     0.0298357  
C194     C      0.764060000000     0.946100000000     0.989870000000     0.0283669  
C195     C      0.718120000000     0.946100000000     0.989870000000     0.0283611  
C196     C      0.718120000000     0.024070000000     0.489770000000     0.0298311  
C197     C      0.264060000000     0.023940000000     0.989490000000     0.0285533  
C198     C      0.264060000000     0.945980000000     0.489430000000     0.029809   
C199     C      0.218120000000     0.945980000000     0.489430000000     0.0298173  
C200     C      0.218120000000     0.023940000000     0.989490000000     0.0285634  
C201     C      0.952030000000     0.757960000000     0.487860000000     0.0297566  
C202     C      0.030010000000     0.757960000000     0.987940000000     0.0284392  
C203     C      0.030000000000     0.712030000000     0.988260000000     0.0284378  
C204     C      0.952020000000     0.712030000000     0.488180000000     0.0296923  
C205     C      0.952140000000     0.212030000000     0.988280000000     0.0283189  
C206     C      0.030130000000     0.212030000000     0.488220000000     0.0296968  
C207     C      0.030130000000     0.257960000000     0.488540000000     0.0297956  
C208     C      0.952150000000     0.257960000000     0.988590000000     0.0283431  
C209     C      0.856560000000     0.850950000000     0.081500000000     0.03061    
C210     C      0.896830000000     0.888320000000     0.120120000000     0.0296629  
C211     C      0.874170000000     0.864750000000     0.142870000000     0.028656   
C212     C      0.833700000000     0.827390000000     0.104340000000     0.0292391  
C213     C      0.895820000000     0.889240000000     0.356270000000     0.0283938  
C214     C      0.856460000000     0.850940000000     0.394900000000     0.0288719  
C215     C      0.833070000000     0.827920000000     0.372060000000     0.0270546  
C216     C      0.872560000000     0.866260000000     0.333510000000     0.0256104  
C217     C      0.856060000000     0.118390000000     0.081560000000     0.0305317  
C218     C      0.893350000000     0.078050000000     0.120180000000     0.0295423  
C219     C      0.869960000000     0.100910000000     0.142930000000     0.0286595  
C220     C      0.832690000000     0.141430000000     0.104390000000     0.0291424  
C221     C      0.873380000000     0.104540000000     0.333560000000     0.0259186  
C222     C      0.834900000000     0.143910000000     0.372110000000     0.0271866  
C223     C      0.858100000000     0.120710000000     0.394950000000     0.0291019  
C224     C      0.896530000000     0.081460000000     0.356320000000     0.0286398  
C225     C      0.149510000000     0.141480000000     0.104350000000     0.0289407  
C226     C      0.112030000000     0.101130000000     0.142880000000     0.0264569  
C227     C      0.088680000000     0.078250000000     0.120110000000     0.0304187  
C228     C      0.126180000000     0.118430000000     0.081500000000     0.0305946  
C229     C      0.124060000000     0.120600000000     0.394880000000     0.0292396  
C230     C      0.085600000000     0.081380000000     0.356260000000     0.029581   
C231     C      0.108740000000     0.104460000000     0.333490000000     0.0253901  
C232     C      0.147250000000     0.143810000000     0.372030000000     0.0274161  
C233     C      0.126260000000     0.851480000000     0.081420000000     0.030787   
C234     C      0.088950000000     0.891860000000     0.120020000000     0.0298158  
C235     C      0.112320000000     0.869020000000     0.142780000000     0.0289026  
C236     C      0.149610000000     0.828450000000     0.104270000000     0.0292905  
C237     C      0.085580000000     0.888590000000     0.356180000000     0.0283358  
C238     C      0.124000000000     0.849370000000     0.394830000000     0.0288275  
C239     C      0.147210000000     0.826160000000     0.371990000000     0.0270802  
C240     C      0.108750000000     0.865500000000     0.333430000000     0.0256621  
C241     C      0.070560000000     0.903870000000     0.909320000000     0.393151   
C242     C      0.911530000000     0.066190000000     0.909450000000     0.39328    
C243     C      0.910900000000     0.904460000000     0.909390000000     0.392989   
C244     C      0.070610000000     0.066110000000     0.909390000000     0.393468   
C245     C      0.909880000000     0.064280000000     0.567060000000     0.39427    
C246     C      0.072440000000     0.905580000000     0.566910000000     0.394362   
C247     C      0.832280000000     0.985080000000     0.989310000000     0.400614   
C248     C      0.991130000000     0.143830000000     0.987940000000     0.400308   
C249     C      0.149900000000     0.984960000000     0.489040000000     0.40254    
C250     C      0.991030000000     0.826160000000     0.487670000000     0.402382   
C251     C      0.910760000000     0.904680000000     0.567010000000     0.394166   
C252     C      0.072310000000     0.064370000000     0.567000000000     0.394374   
C253     C      0.991140000000     0.326160000000     0.988750000000     0.400357   
C254     C      0.832280000000     0.484930000000     0.987140000000     0.400841   
C255     C      0.910990000000     0.404530000000     0.566990000000     0.393494   
C256     C      0.910460000000     0.404920000000     0.909370000000     0.393893   
C257     C      0.991020000000     0.643820000000     0.488490000000     0.402304   
C258     C      0.149910000000     0.485030000000     0.486860000000     0.402657   
C259     C      0.911790000000     0.566370000000     0.566890000000     0.393939   
C260     C      0.909890000000     0.564370000000     0.909290000000     0.393627   
C261     C      0.071690000000     0.404960000000     0.909280000000     0.393593   
C262     C      0.071280000000     0.404460000000     0.566910000000     0.393546   
C263     C      0.071340000000     0.565580000000     0.566840000000     0.393821   
C264     C      0.071650000000     0.564990000000     0.909240000000     0.393541   
C265     C      0.332280000000     0.984970000000     0.989050000000     0.400746   
C266     C      0.491050000000     0.143830000000     0.987950000000     0.400442   
C267     C      0.409820000000     0.064330000000     0.567000000000     0.394486   
C268     C      0.411570000000     0.066120000000     0.909390000000     0.393143   
C269     C      0.649910000000     0.985080000000     0.489320000000     0.402362   
C270     C      0.491160000000     0.826170000000     0.487670000000     0.402448   
C271     C      0.572250000000     0.064320000000     0.567080000000     0.394132   
C272     C      0.570670000000     0.066180000000     0.909470000000     0.393336   
C273     C      0.411600000000     0.903900000000     0.909330000000     0.393178   
C274     C      0.409780000000     0.905550000000     0.566920000000     0.394591   
C275     C      0.571460000000     0.904720000000     0.567020000000     0.394135   
C276     C      0.571260000000     0.904440000000     0.909410000000     0.393052   
C277     C      0.332290000000     0.485040000000     0.986860000000     0.400851   
C278     C      0.491060000000     0.326170000000     0.988750000000     0.400442   
C279     C      0.410480000000     0.404960000000     0.909300000000     0.393715   
C280     C      0.410920000000     0.404460000000     0.566910000000     0.393545   
C281     C      0.649910000000     0.484930000000     0.487130000000     0.402765   
C282     C      0.491170000000     0.643830000000     0.488480000000     0.402431   
C283     C      0.571710000000     0.404900000000     0.909350000000     0.393566   
C284     C      0.571250000000     0.404580000000     0.566980000000     0.393495   
C285     C      0.410810000000     0.565560000000     0.566830000000     0.393816   
C286     C      0.410560000000     0.565010000000     0.909220000000     0.393342   
C287     C      0.572320000000     0.564350000000     0.909280000000     0.393758   
C288     C      0.570370000000     0.566420000000     0.566880000000     0.393831   
C289     C      0.163070000000     0.312660000000     0.818460000000     0.381569   
C290     C      0.164750000000     0.155660000000     0.657800000000     0.38081    
C291     C      0.162570000000     0.157900000000     0.818570000000     0.37901    
C292     C      0.164340000000     0.313730000000     0.657710000000     0.382389   
C293     C      0.317940000000     0.313640000000     0.657700000000     0.37989    
C294     C      0.319490000000     0.157860000000     0.818600000000     0.37942    
C295     C      0.317260000000     0.155520000000     0.657780000000     0.381798   
C296     C      0.319170000000     0.312580000000     0.818490000000     0.378421   
C297     C      0.162640000000     0.812100000000     0.818550000000     0.379206   
C298     C      0.164320000000     0.656330000000     0.657650000000     0.380134   
C299     C      0.163030000000     0.657340000000     0.818440000000     0.378208   
C300     C      0.164940000000     0.814400000000     0.657720000000     0.381807   
C301     C      0.317380000000     0.814310000000     0.657750000000     0.38072    
C302     C      0.319110000000     0.657360000000     0.818450000000     0.379409   
C303     C      0.317720000000     0.656230000000     0.657620000000     0.381329   
C304     C      0.319580000000     0.812120000000     0.818530000000     0.378103   
C305     C      0.819500000000     0.157930000000     0.818650000000     0.379636   
C306     C      0.817930000000     0.313710000000     0.657750000000     0.379692   
C307     C      0.819130000000     0.312610000000     0.818540000000     0.378687   
C308     C      0.817300000000     0.155530000000     0.657830000000     0.381489   
C309     C      0.664730000000     0.155640000000     0.657860000000     0.380352   
C310     C      0.663110000000     0.312600000000     0.818550000000     0.37974    
C311     C      0.664410000000     0.313830000000     0.657730000000     0.381082   
C312     C      0.662630000000     0.157920000000     0.818640000000     0.378243   
C313     C      0.818660000000     0.812890000000     0.818600000000     0.379192   
C314     C      0.662260000000     0.811770000000     0.657800000000     0.380491   
C315     C      0.663510000000     0.812940000000     0.818590000000     0.378124   
C316     C      0.820030000000     0.811610000000     0.657780000000     0.381618   
C317     C      0.820390000000     0.658730000000     0.657710000000     0.379947   
C318     C      0.664010000000     0.656420000000     0.818500000000     0.379818   
C319     C      0.661690000000     0.658890000000     0.657680000000     0.381308   
C320     C      0.818190000000     0.656370000000     0.818490000000     0.37867    
C321     C      0.357120000000     0.350320000000     0.581410000000     0.0294149  
C322     C      0.394790000000     0.390300000000     0.620030000000     0.0297241  
C323     C      0.371230000000     0.367620000000     0.642780000000     0.0259329  
C324     C      0.333580000000     0.327440000000     0.604250000000     0.0277876  
C325     C      0.334060000000     0.327090000000     0.871940000000     0.0273288  
C326     C      0.372420000000     0.366600000000     0.833410000000     0.0250603  
C327     C      0.395320000000     0.389910000000     0.856170000000     0.0296806  
C328     C      0.357020000000     0.350510000000     0.894790000000     0.0294789  
C329     C      0.357040000000     0.619740000000     0.581330000000     0.0294405  
C330     C      0.394520000000     0.579550000000     0.619940000000     0.0291057  
C331     C      0.370930000000     0.602190000000     0.642690000000     0.0283432  
C332     C      0.333470000000     0.642570000000     0.604170000000     0.0282027  
C333     C      0.357110000000     0.619480000000     0.894720000000     0.0292441  
C334     C      0.395360000000     0.580070000000     0.856090000000     0.0287496  
C335     C      0.372430000000     0.603380000000     0.833330000000     0.0258955  
C336     C      0.334130000000     0.642890000000     0.871890000000     0.0273751  
C337     C      0.584090000000     0.583000000000     0.619990000000     0.0290752  
C338     C      0.624540000000     0.620190000000     0.581380000000     0.0293752  
C339     C      0.647610000000     0.643530000000     0.604220000000     0.0281262  
C340     C      0.606980000000     0.606350000000     0.642750000000     0.0282335  
C341     C      0.626810000000     0.617780000000     0.894780000000     0.0293212  
C342     C      0.587620000000     0.579300000000     0.856140000000     0.0286624  
C343     C      0.610670000000     0.602470000000     0.833390000000     0.0259774  
C344     C      0.649990000000     0.640990000000     0.871940000000     0.0274498  
C345     C      0.625020000000     0.350400000000     0.581460000000     0.0292598  
C346     C      0.587570000000     0.390560000000     0.620100000000     0.0288444  
C347     C      0.611180000000     0.367900000000     0.642840000000     0.0280663  
C348     C      0.648610000000     0.327540000000     0.604290000000     0.0280662  
C349     C      0.648140000000     0.327040000000     0.872000000000     0.0275244  
C350     C      0.609810000000     0.366560000000     0.833460000000     0.0260891  
C351     C      0.586890000000     0.389850000000     0.856230000000     0.0289039  
C352     C      0.625170000000     0.350450000000     0.894850000000     0.0294459  
C353     C      0.530160000000     0.757970000000     0.487860000000     0.0297912  
C354     C      0.452180000000     0.757960000000     0.987940000000     0.0283365  
C355     C      0.452190000000     0.712030000000     0.988250000000     0.0283846  
C356     C      0.530170000000     0.712030000000     0.488170000000     0.0297185  
C357     C      0.452060000000     0.212040000000     0.488230000000     0.0296187  
C358     C      0.530040000000     0.212040000000     0.988280000000     0.0283014  
C359     C      0.530040000000     0.257970000000     0.988600000000     0.028312   
C360     C      0.452060000000     0.257970000000     0.488550000000     0.0296596  
C361     C      0.355940000000     0.851480000000     0.581430000000     0.0299463  
C362     C      0.393370000000     0.891740000000     0.620030000000     0.0302809  
C363     C      0.370040000000     0.868870000000     0.642800000000     0.0263515  
C364     C      0.332610000000     0.828430000000     0.604290000000     0.0282331  
C365     C      0.373430000000     0.865560000000     0.833440000000     0.0249638  
C366     C      0.334940000000     0.826210000000     0.871990000000     0.0269185  
C367     C      0.358140000000     0.849420000000     0.894830000000     0.0291499  
C368     C      0.396590000000     0.888640000000     0.856200000000     0.0295268  
C369     C      0.393310000000     0.078090000000     0.620110000000     0.0294243  
C370     C      0.355980000000     0.118410000000     0.581490000000     0.0297367  
C371     C      0.332610000000     0.141440000000     0.604330000000     0.0285021  
C372     C      0.369920000000     0.100930000000     0.642860000000     0.0286317  
C373     C      0.358130000000     0.120630000000     0.894890000000     0.0290372  
C374     C      0.396530000000     0.081370000000     0.856260000000     0.0287486  
C375     C      0.373370000000     0.104440000000     0.833500000000     0.0259315  
C376     C      0.334920000000     0.143830000000     0.872050000000     0.0270911  
C377     C      0.612030000000     0.101070000000     0.642950000000     0.0261089  
C378     C      0.649440000000     0.141470000000     0.604410000000     0.0281033  
C379     C      0.626090000000     0.118410000000     0.581570000000     0.0296893  
C380     C      0.588670000000     0.078180000000     0.620190000000     0.0300446  
C381     C      0.585660000000     0.081430000000     0.856340000000     0.0297322  
C382     C      0.624120000000     0.120670000000     0.894960000000     0.0291636  
C383     C      0.647310000000     0.143860000000     0.872100000000     0.0271577  
C384     C      0.608800000000     0.104500000000     0.833570000000     0.0251351  
C385     C      0.585480000000     0.888480000000     0.620140000000     0.0300311  
C386     C      0.625640000000     0.850980000000     0.581520000000     0.0298259  
C387     C      0.648510000000     0.827450000000     0.604360000000     0.0281834  
C388     C      0.608170000000     0.864940000000     0.642890000000     0.026281   
C389     C      0.625670000000     0.850910000000     0.894900000000     0.0291661  
C390     C      0.586310000000     0.889230000000     0.856280000000     0.0297356  
C391     C      0.609570000000     0.866270000000     0.833510000000     0.0250172  
C392     C      0.649050000000     0.827890000000     0.872050000000     0.0270433  
C393     C      0.764070000000     0.445940000000     0.986640000000     0.028476   
C394     C      0.764070000000     0.523910000000     0.486710000000     0.0297384  
C395     C      0.718120000000     0.523910000000     0.486700000000     0.0297341  
C396     C      0.718120000000     0.445950000000     0.986640000000     0.0285053  
C397     C      0.218130000000     0.446060000000     0.986340000000     0.0285307  
C398     C      0.218120000000     0.524020000000     0.486290000000     0.0298558  
C399     C      0.264070000000     0.524030000000     0.486290000000     0.02979    
C400     C      0.264070000000     0.446060000000     0.986340000000     0.0284529  
C401     C      0.894780000000     0.390420000000     0.620110000000     0.0294401  
C402     C      0.857190000000     0.350370000000     0.581480000000     0.0291957  
C403     C      0.833640000000     0.327500000000     0.604310000000     0.0277148  
C404     C      0.871210000000     0.367730000000     0.642850000000     0.0256981  
C405     C      0.895290000000     0.389890000000     0.856240000000     0.0299873  
C406     C      0.856980000000     0.350490000000     0.894850000000     0.0296922  
C407     C      0.834020000000     0.327090000000     0.872000000000     0.0274208  
C408     C      0.872380000000     0.366610000000     0.833470000000     0.0254173  
C409     C      0.857640000000     0.620160000000     0.581400000000     0.0294102  
C410     C      0.897970000000     0.582830000000     0.620000000000     0.0299811  
C411     C      0.875060000000     0.606150000000     0.642770000000     0.0258349  
C412     C      0.834550000000     0.643480000000     0.604250000000     0.0278467  
C413     C      0.894610000000     0.579310000000     0.856170000000     0.0299876  
C414     C      0.855420000000     0.617820000000     0.894790000000     0.0295425  
C415     C      0.832250000000     0.641020000000     0.871940000000     0.0273871  
C416     C      0.871560000000     0.602470000000     0.833400000000     0.0253509  
C417     C      0.125130000000     0.619730000000     0.581340000000     0.0294575  
C418     C      0.087530000000     0.579660000000     0.619950000000     0.0299274  
C419     C      0.111080000000     0.602330000000     0.642710000000     0.0260822  
C420     C      0.148670000000     0.642590000000     0.604200000000     0.0279643  
C421     C      0.125120000000     0.619430000000     0.894730000000     0.0293826  
C422     C      0.086840000000     0.580030000000     0.856100000000     0.0297509  
C423     C      0.109760000000     0.603320000000     0.833340000000     0.0250612  
C424     C      0.148090000000     0.642840000000     0.871880000000     0.0273695  
C425     C      0.125080000000     0.350320000000     0.581410000000     0.0291497  
C426     C      0.087440000000     0.390350000000     0.620030000000     0.0281956  
C427     C      0.111010000000     0.367680000000     0.642780000000     0.028171   
C428     C      0.148630000000     0.327460000000     0.604260000000     0.028127   
C429     C      0.109780000000     0.366640000000     0.833370000000     0.0277929  
C430     C      0.148110000000     0.327100000000     0.871910000000     0.0279679  
C431     C      0.125140000000     0.350500000000     0.894760000000     0.0294581  
C432     C      0.086860000000     0.389930000000     0.856140000000     0.0284558  
C433     C      0.764060000000     0.024070000000     0.989770000000     0.0284818  
C434     C      0.764060000000     0.946100000000     0.489870000000     0.0297021  
C435     C      0.718120000000     0.946100000000     0.489870000000     0.0297226  
C436     C      0.718120000000     0.024070000000     0.989770000000     0.0284787  
C437     C      0.264060000000     0.023940000000     0.489490000000     0.0298972  
C438     C      0.264060000000     0.945980000000     0.989430000000     0.0284791  
C439     C      0.218120000000     0.945980000000     0.989430000000     0.028459   
C440     C      0.218120000000     0.023940000000     0.489490000000     0.0299035  
C441     C      0.952030000000     0.757960000000     0.987860000000     0.0284355  
C442     C      0.030010000000     0.757960000000     0.487940000000     0.0297622  
C443     C      0.030000000000     0.712030000000     0.488260000000     0.0297658  
C444     C      0.952020000000     0.712030000000     0.988180000000     0.028367   
C445     C      0.952150000000     0.212030000000     0.488280000000     0.0297222  
C446     C      0.030130000000     0.212030000000     0.988220000000     0.0283685  
C447     C      0.030130000000     0.257960000000     0.988540000000     0.0284713  
C448     C      0.952150000000     0.257960000000     0.488600000000     0.0296298  
C449     C      0.856560000000     0.850950000000     0.581510000000     0.0297898  
C450     C      0.896830000000     0.888320000000     0.620120000000     0.029241   
C451     C      0.874170000000     0.864750000000     0.642870000000     0.028415   
C452     C      0.833700000000     0.827390000000     0.604340000000     0.0284204  
C453     C      0.895820000000     0.889240000000     0.856270000000     0.0284771  
C454     C      0.856460000000     0.850940000000     0.894900000000     0.0289223  
C455     C      0.833080000000     0.827920000000     0.872060000000     0.0270747  
C456     C      0.872560000000     0.866270000000     0.833510000000     0.0256513  
C457     C      0.856060000000     0.118390000000     0.581560000000     0.0296568  
C458     C      0.893350000000     0.078050000000     0.620180000000     0.0291362  
C459     C      0.869960000000     0.100910000000     0.642930000000     0.0283977  
C460     C      0.832690000000     0.141430000000     0.604390000000     0.0283665  
C461     C      0.873370000000     0.104540000000     0.833560000000     0.026078   
C462     C      0.834900000000     0.143910000000     0.872100000000     0.0272971  
C463     C      0.858100000000     0.120710000000     0.894950000000     0.0291138  
C464     C      0.896530000000     0.081460000000     0.856320000000     0.0286883  
C465     C      0.149510000000     0.141480000000     0.604350000000     0.0281699  
C466     C      0.112030000000     0.101130000000     0.642870000000     0.0262513  
C467     C      0.088680000000     0.078250000000     0.620110000000     0.0299777  
C468     C      0.126180000000     0.118430000000     0.581500000000     0.0297148  
C469     C      0.124060000000     0.120600000000     0.894880000000     0.0293066  
C470     C      0.085600000000     0.081380000000     0.856260000000     0.0296725  
C471     C      0.108740000000     0.104460000000     0.833490000000     0.0254797  
C472     C      0.147250000000     0.143810000000     0.872030000000     0.0274161  
C473     C      0.126260000000     0.851480000000     0.581420000000     0.0298594  
C474     C      0.088950000000     0.891850000000     0.620020000000     0.0294488  
C475     C      0.112320000000     0.869020000000     0.642780000000     0.028581   
C476     C      0.149610000000     0.828460000000     0.604270000000     0.0286012  
C477     C      0.085580000000     0.888590000000     0.856190000000     0.028498   
C478     C      0.124000000000     0.849370000000     0.894830000000     0.0289212  
C479     C      0.147210000000     0.826160000000     0.871990000000     0.0270429  
C480     C      0.108750000000     0.865500000000     0.833430000000     0.0257445  
H1       H      0.901670000000     0.985110000000     0.443860000000     0.211184   
H2       H      0.080430000000     0.985000000000     0.443740000000     0.211139   
H3       H      0.991190000000     0.895620000000     0.032550000000     0.213043   
H4       H      0.991140000000     0.074260000000     0.032710000000     0.212774   
H5       H      0.901770000000     0.485080000000     0.032540000000     0.21261    
H6       H      0.991080000000     0.395650000000     0.443770000000     0.212044   
H7       H      0.080520000000     0.485040000000     0.032380000000     0.212788   
H8       H      0.990980000000     0.574270000000     0.443650000000     0.211798   
H9       H      0.491030000000     0.074260000000     0.032720000000     0.213014   
H10      H      0.401740000000     0.985010000000     0.443750000000     0.21103    
H11      H      0.491000000000     0.895630000000     0.032560000000     0.213245   
H12      H      0.580510000000     0.985110000000     0.443870000000     0.211245   
H13      H      0.491100000000     0.395660000000     0.443770000000     0.212145   
H14      H      0.401680000000     0.485060000000     0.032370000000     0.213102   
H15      H      0.491220000000     0.574280000000     0.443640000000     0.211765   
H16      H      0.580420000000     0.485100000000     0.032520000000     0.212754   
H17      H      0.145260000000     0.235190000000     0.193930000000     0.212485   
H18      H      0.240780000000     0.137980000000     0.284420000000     0.204723   
H19      H      0.336940000000     0.234490000000     0.193950000000     0.21131    
H20      H      0.241390000000     0.332020000000     0.284240000000     0.204844   
H21      H      0.195780000000     0.077760000000     0.241080000000     0.125679   
H22      H      0.289260000000     0.071110000000     0.240890000000     0.187283   
H23      H      0.391880000000     0.192760000000     0.256450000000     0.149403   
H24      H      0.399630000000     0.289620000000     0.218180000000     0.201484   
H25      H      0.286310000000     0.392120000000     0.240860000000     0.1255     
H26      H      0.192570000000     0.398790000000     0.240810000000     0.187374   
H27      H      0.085900000000     0.320050000000     0.236350000000     0.141221   
H28      H      0.082060000000     0.175750000000     0.218580000000     0.203796   
H29      H      0.399350000000     0.284100000000     0.256700000000     0.204741   
H30      H      0.138010000000     0.391650000000     0.236920000000     0.197348   
H31      H      0.083450000000     0.190670000000     0.255840000000     0.213705   
H32      H      0.343970000000     0.078160000000     0.238020000000     0.205316   
H33      H      0.145250000000     0.735410000000     0.193910000000     0.211505   
H34      H      0.240860000000     0.637940000000     0.284200000000     0.205197   
H35      H      0.336930000000     0.734830000000     0.193900000000     0.211421   
H36      H      0.241330000000     0.831990000000     0.284390000000     0.204605   
H37      H      0.195980000000     0.577810000000     0.240930000000     0.125535   
H38      H      0.289460000000     0.571200000000     0.240390000000     0.187094   
H39      H      0.391800000000     0.692730000000     0.256740000000     0.148755   
H40      H      0.399490000000     0.790440000000     0.217890000000     0.201684   
H41      H      0.286120000000     0.892240000000     0.240960000000     0.125545   
H42      H      0.192760000000     0.898840000000     0.240880000000     0.187125   
H43      H      0.090280000000     0.777100000000     0.256400000000     0.148838   
H44      H      0.082600000000     0.680160000000     0.218130000000     0.201849   
H45      H      0.399400000000     0.783930000000     0.256330000000     0.204686   
H46      H      0.138060000000     0.891720000000     0.237940000000     0.204517   
H47      H      0.082870000000     0.685760000000     0.256630000000     0.204801   
H48      H      0.344160000000     0.578360000000     0.237550000000     0.204541   
H49      H      0.836930000000     0.234570000000     0.193990000000     0.211246   
H50      H      0.741340000000     0.332060000000     0.284280000000     0.205412   
H51      H      0.645260000000     0.235170000000     0.193990000000     0.211501   
H52      H      0.740840000000     0.138000000000     0.284470000000     0.20494    
H53      H      0.786210000000     0.392180000000     0.240960000000     0.126082   
H54      H      0.692750000000     0.398790000000     0.240460000000     0.187524   
H55      H      0.590390000000     0.277290000000     0.256840000000     0.149234   
H56      H      0.582690000000     0.179640000000     0.217990000000     0.201847   
H57      H      0.696030000000     0.077770000000     0.241180000000     0.126183   
H58      H      0.789390000000     0.071160000000     0.240910000000     0.187545   
H59      H      0.891900000000     0.192870000000     0.256500000000     0.149851   
H60      H      0.899590000000     0.289760000000     0.218220000000     0.201374   
H61      H      0.582790000000     0.186050000000     0.256430000000     0.2052     
H62      H      0.844100000000     0.078270000000     0.238100000000     0.204712   
H63      H      0.899310000000     0.284240000000     0.256730000000     0.205026   
H64      H      0.638040000000     0.391640000000     0.237690000000     0.204492   
H65      H      0.741390000000     0.830820000000     0.194040000000     0.211521   
H66      H      0.644040000000     0.735060000000     0.284340000000     0.205131   
H67      H      0.740800000000     0.639180000000     0.193840000000     0.210841   
H68      H      0.838140000000     0.734570000000     0.284340000000     0.205148   
H69      H      0.583840000000     0.780010000000     0.240990000000     0.126186   
H70      H      0.577250000000     0.686600000000     0.240830000000     0.18748    
H71      H      0.699010000000     0.584130000000     0.256290000000     0.148985   
H72      H      0.796330000000     0.576620000000     0.217750000000     0.201645   
H73      H      0.898330000000     0.689880000000     0.241010000000     0.126032   
H74      H      0.904950000000     0.783240000000     0.240550000000     0.187694   
H75      H      0.783370000000     0.885600000000     0.256860000000     0.148707   
H76      H      0.686060000000     0.893420000000     0.218290000000     0.202059   
H77      H      0.790150000000     0.576610000000     0.256210000000     0.204826   
H78      H      0.897820000000     0.837940000000     0.237830000000     0.204212   
H79      H      0.691950000000     0.893090000000     0.256780000000     0.20469    
H80      H      0.584380000000     0.631920000000     0.237860000000     0.204212   
H81      H      0.350260000000     0.342220000000     0.057450000000     0.0390497  
H82      H      0.418550000000     0.414810000000     0.127630000000     0.0354206  
H83      H      0.378260000000     0.375860000000     0.166700000000     0.0394491  
H84      H      0.309780000000     0.302880000000     0.096810000000     0.0402078  
H85      H      0.310180000000     0.302610000000     0.379390000000     0.038877   
H86      H      0.379910000000     0.374390000000     0.309490000000     0.03908    
H87      H      0.419160000000     0.414340000000     0.348580000000     0.0349122  
H88      H      0.349690000000     0.342860000000     0.418760000000     0.0360679  
H89      H      0.350280000000     0.627930000000     0.057370000000     0.0390957  
H90      H      0.418210000000     0.554970000000     0.127530000000     0.0353598  
H91      H      0.377850000000     0.593830000000     0.166600000000     0.0369976  
H92      H      0.309740000000     0.667200000000     0.096730000000     0.040214   
H93      H      0.349800000000     0.627140000000     0.418690000000     0.0360771  
H94      H      0.419200000000     0.555630000000     0.348490000000     0.0344241  
H95      H      0.379880000000     0.595570000000     0.309410000000     0.034328   
H96      H      0.310240000000     0.667370000000     0.379340000000     0.0388403  
H97      H      0.559340000000     0.559490000000     0.127580000000     0.0353122  
H98      H      0.632770000000     0.626920000000     0.057420000000     0.0390065  
H99      H      0.672430000000     0.667070000000     0.096780000000     0.0401502  
H100     H      0.598600000000     0.599470000000     0.166660000000     0.0368241  
H101     H      0.634460000000     0.625100000000     0.418750000000     0.0361561  
H102     H      0.563340000000     0.555300000000     0.348550000000     0.0343028  
H103     H      0.602870000000     0.595000000000     0.309460000000     0.0341096  
H104     H      0.674310000000     0.665040000000     0.379390000000     0.0388754  
H105     H      0.631770000000     0.342220000000     0.057500000000     0.0390753  
H106     H      0.563880000000     0.415140000000     0.127700000000     0.035209   
H107     H      0.604280000000     0.376240000000     0.166750000000     0.0369994  
H108     H      0.672330000000     0.302910000000     0.096830000000     0.0401115  
H109     H      0.672030000000     0.302560000000     0.379450000000     0.038885   
H110     H      0.602350000000     0.374380000000     0.309540000000     0.0344328  
H111     H      0.563060000000     0.414290000000     0.348630000000     0.0345572  
H112     H      0.632490000000     0.342780000000     0.418820000000     0.0360978  
H113     H      0.561910000000     0.774560000000     0.987730000000     0.0345633  
H114     H      0.420430000000     0.774550000000     0.487870000000     0.0360346  
H115     H      0.420440000000     0.695440000000     0.488380000000     0.0360357  
H116     H      0.561910000000     0.695440000000     0.988240000000     0.0345087  
H117     H      0.420310000000     0.195450000000     0.988110000000     0.0344254  
H118     H      0.561790000000     0.195450000000     0.488200000000     0.0360252  
H119     H      0.561790000000     0.274550000000     0.488720000000     0.0360185  
H120     H      0.420310000000     0.274560000000     0.988620000000     0.0343964  
H121     H      0.349110000000     0.843320000000     0.057480000000     0.0392255  
H122     H      0.416970000000     0.916410000000     0.127610000000     0.0361449  
H123     H      0.377040000000     0.877170000000     0.166710000000     0.0400244  
H124     H      0.308980000000     0.803700000000     0.096860000000     0.0404758  
H125     H      0.380900000000     0.873360000000     0.309520000000     0.0395574  
H126     H      0.310910000000     0.801880000000     0.379440000000     0.0386279  
H127     H      0.350830000000     0.841760000000     0.418800000000     0.0358749  
H128     H      0.420570000000     0.912930000000     0.348600000000     0.0354089  
H129     H      0.416880000000     0.053380000000     0.127690000000     0.0360112  
H130     H      0.349210000000     0.126600000000     0.057540000000     0.039227   
H131     H      0.309010000000     0.166190000000     0.096890000000     0.0404021  
H132     H      0.376840000000     0.092580000000     0.166780000000     0.0375366  
H133     H      0.350850000000     0.128300000000     0.418860000000     0.0359417  
H134     H      0.420500000000     0.057070000000     0.348650000000     0.0350678  
H135     H      0.380800000000     0.096620000000     0.309580000000     0.0349036  
H136     H      0.310900000000     0.168170000000     0.379500000000     0.0386337  
H137     H      0.605050000000     0.092800000000     0.166870000000     0.0400539  
H138     H      0.673070000000     0.166190000000     0.096970000000     0.0404082  
H139     H      0.632920000000     0.126550000000     0.057620000000     0.0391791  
H140     H      0.565060000000     0.053520000000     0.127780000000     0.0360592  
H141     H      0.561680000000     0.057140000000     0.348740000000     0.0355604  
H142     H      0.631440000000     0.128320000000     0.418920000000     0.0359334  
H143     H      0.671340000000     0.168200000000     0.379540000000     0.0386719  
H144     H      0.601310000000     0.096690000000     0.309660000000     0.0396684  
H145     H      0.560910000000     0.912180000000     0.127730000000     0.0361067  
H146     H      0.633810000000     0.844180000000     0.057560000000     0.0393015  
H147     H      0.673140000000     0.803720000000     0.096920000000     0.0404579  
H148     H      0.599860000000     0.871910000000     0.166810000000     0.0401282  
H149     H      0.633320000000     0.843590000000     0.418870000000     0.0358603  
H150     H      0.561910000000     0.913100000000     0.348680000000     0.0356834  
H151     H      0.601770000000     0.873760000000     0.309600000000     0.0399075  
H152     H      0.673500000000     0.803980000000     0.379490000000     0.0386353  
H153     H      0.780670000000     0.414200000000     0.486610000000     0.0361662  
H154     H      0.780660000000     0.555650000000     0.986730000000     0.0344818  
H155     H      0.701530000000     0.555650000000     0.986720000000     0.0344709  
H156     H      0.701530000000     0.414210000000     0.486610000000     0.0361648  
H157     H      0.201540000000     0.414320000000     0.486360000000     0.036168   
H158     H      0.201520000000     0.555760000000     0.986270000000     0.0346006  
H159     H      0.280660000000     0.555770000000     0.986270000000     0.0346063  
H160     H      0.280670000000     0.414320000000     0.486360000000     0.0361611  
H161     H      0.918520000000     0.414940000000     0.127710000000     0.0354032  
H162     H      0.850370000000     0.342250000000     0.057520000000     0.0390177  
H163     H      0.809860000000     0.302920000000     0.096860000000     0.0401553  
H164     H      0.878200000000     0.375990000000     0.166770000000     0.0394601  
H165     H      0.919130000000     0.414320000000     0.348650000000     0.0354764  
H166     H      0.849650000000     0.342830000000     0.418820000000     0.0361128  
H167     H      0.810130000000     0.302610000000     0.379430000000     0.0389385  
H168     H      0.879870000000     0.374410000000     0.309550000000     0.0394891  
H169     H      0.849470000000     0.626960000000     0.057440000000     0.0389683  
H170     H      0.922680000000     0.559280000000     0.127590000000     0.0359407  
H171     H      0.883370000000     0.599190000000     0.166680000000     0.0401111  
H172     H      0.809780000000     0.667060000000     0.096810000000     0.040181   
H173     H      0.918880000000     0.555300000000     0.348570000000     0.0356596  
H174     H      0.847780000000     0.625160000000     0.418750000000     0.0360964  
H175     H      0.807930000000     0.665080000000     0.379380000000     0.0389242  
H176     H      0.879350000000     0.594970000000     0.309480000000     0.0397695  
H177     H      0.131960000000     0.627870000000     0.057380000000     0.039068   
H178     H      0.063790000000     0.555120000000     0.127540000000     0.035727   
H179     H      0.104070000000     0.594040000000     0.166620000000     0.0397409  
H180     H      0.172440000000     0.667180000000     0.096760000000     0.0402623  
H181     H      0.132440000000     0.627090000000     0.418690000000     0.036072   
H182     H      0.063000000000     0.555590000000     0.348510000000     0.0353714  
H183     H      0.102290000000     0.595520000000     0.309420000000     0.0394172  
H184     H      0.171980000000     0.667320000000     0.379330000000     0.038845   
H185     H      0.131910000000     0.342190000000     0.057450000000     0.0391093  
H186     H      0.063690000000     0.414870000000     0.127620000000     0.0350834  
H187     H      0.104020000000     0.375960000000     0.166700000000     0.0325327  
H188     H      0.172420000000     0.302890000000     0.096820000000     0.0400757  
H189     H      0.102310000000     0.374460000000     0.309450000000     0.0333974  
H190     H      0.171990000000     0.302620000000     0.379350000000     0.0389662  
H191     H      0.132460000000     0.342830000000     0.418720000000     0.0361623  
H192     H      0.063030000000     0.414370000000     0.348560000000     0.0349927  
H193     H      0.780660000000     0.055810000000     0.489730000000     0.0361409  
H194     H      0.780650000000     0.914360000000     0.989910000000     0.0343988  
H195     H      0.701530000000     0.914360000000     0.989910000000     0.0344025  
H196     H      0.701520000000     0.055810000000     0.489740000000     0.0361536  
H197     H      0.280650000000     0.055680000000     0.989520000000     0.0345086  
H198     H      0.280660000000     0.914240000000     0.489420000000     0.0361666  
H199     H      0.201530000000     0.914230000000     0.489410000000     0.0361581  
H200     H      0.201520000000     0.055680000000     0.989510000000     0.0345169  
H201     H      0.920280000000     0.774550000000     0.487730000000     0.0361275  
H202     H      0.061760000000     0.774540000000     0.987870000000     0.0344152  
H203     H      0.061750000000     0.695440000000     0.988390000000     0.0344115  
H204     H      0.920280000000     0.695440000000     0.488250000000     0.0361521  
H205     H      0.920390000000     0.195440000000     0.988200000000     0.0344345  
H206     H      0.061870000000     0.195430000000     0.488100000000     0.036066   
H207     H      0.061880000000     0.274550000000     0.488610000000     0.0360423  
H208     H      0.920400000000     0.274550000000     0.988720000000     0.0344004  
H209     H      0.848330000000     0.844220000000     0.057550000000     0.0393189  
H210     H      0.921450000000     0.911970000000     0.127720000000     0.0351993  
H211     H      0.882540000000     0.871620000000     0.166790000000     0.0369006  
H212     H      0.809030000000     0.803710000000     0.096890000000     0.0404138  
H213     H      0.920230000000     0.913100000000     0.348660000000     0.0341853  
H214     H      0.848810000000     0.843640000000     0.418870000000     0.0358832  
H215     H      0.808620000000     0.804010000000     0.379510000000     0.0386123  
H216     H      0.880370000000     0.873720000000     0.309590000000     0.0340613  
H217     H      0.849300000000     0.126590000000     0.057600000000     0.0391963  
H218     H      0.916900000000     0.053330000000     0.127770000000     0.0354333  
H219     H      0.876860000000     0.092560000000     0.166840000000     0.0370691  
H220     H      0.809100000000     0.166200000000     0.096940000000     0.0403508  
H221     H      0.880830000000     0.096720000000     0.309640000000     0.0345326  
H222     H      0.810880000000     0.168250000000     0.379550000000     0.038697   
H223     H      0.850800000000     0.128370000000     0.418920000000     0.0359482  
H224     H      0.920500000000     0.057160000000     0.348720000000     0.0345906  
H225     H      0.173170000000     0.166180000000     0.096910000000     0.0404043  
H226     H      0.105010000000     0.092870000000     0.166790000000     0.0390845  
H227     H      0.065050000000     0.053610000000     0.127700000000     0.0355685  
H228     H      0.133030000000     0.126550000000     0.057540000000     0.0392092  
H229     H      0.131390000000     0.128250000000     0.418850000000     0.0359583  
H230     H      0.061620000000     0.057090000000     0.348660000000     0.0350053  
H231     H      0.101250000000     0.096670000000     0.309570000000     0.039759   
H232     H      0.171290000000     0.168140000000     0.379470000000     0.0387883  
H233     H      0.133030000000     0.843270000000     0.057460000000     0.039222   
H234     H      0.065400000000     0.916580000000     0.127600000000     0.035573   
H235     H      0.105400000000     0.877390000000     0.166690000000     0.0370582  
H236     H      0.173200000000     0.803680000000     0.096840000000     0.0404591  
H237     H      0.061600000000     0.912890000000     0.348580000000     0.0343622  
H238     H      0.131300000000     0.841710000000     0.418790000000     0.0359271  
H239     H      0.171240000000     0.801820000000     0.379450000000     0.0385783  
H240     H      0.101300000000     0.873310000000     0.309510000000     0.034254   
H241     H      0.901670000000     0.985110000000     0.943860000000     0.211376   
H242     H      0.080430000000     0.985000000000     0.943740000000     0.211347   
H243     H      0.991190000000     0.895630000000     0.532550000000     0.211904   
H244     H      0.991140000000     0.074260000000     0.532710000000     0.211485   
H245     H      0.901770000000     0.485080000000     0.532540000000     0.211327   
H246     H      0.991080000000     0.395650000000     0.943770000000     0.212271   
H247     H      0.080520000000     0.485040000000     0.532380000000     0.211499   
H248     H      0.990980000000     0.574270000000     0.943650000000     0.212019   
H249     H      0.491030000000     0.074260000000     0.532720000000     0.211558   
H250     H      0.401740000000     0.985010000000     0.943750000000     0.211231   
H251     H      0.491000000000     0.895630000000     0.532560000000     0.211942   
H252     H      0.580510000000     0.985110000000     0.943870000000     0.211434   
H253     H      0.491100000000     0.395660000000     0.943770000000     0.212342   
H254     H      0.401680000000     0.485050000000     0.532370000000     0.211806   
H255     H      0.491220000000     0.574280000000     0.943640000000     0.211971   
H256     H      0.580420000000     0.485100000000     0.532530000000     0.211317   
H257     H      0.145260000000     0.235190000000     0.693930000000     0.212407   
H258     H      0.240780000000     0.137980000000     0.784430000000     0.204642   
H259     H      0.336940000000     0.234490000000     0.693950000000     0.21124    
H260     H      0.241390000000     0.332020000000     0.784240000000     0.2049     
H261     H      0.195780000000     0.077760000000     0.741080000000     0.125699   
H262     H      0.289260000000     0.071110000000     0.740890000000     0.18733    
H263     H      0.391880000000     0.192760000000     0.756450000000     0.149462   
H264     H      0.399630000000     0.289620000000     0.718180000000     0.20151    
H265     H      0.286310000000     0.392120000000     0.740860000000     0.125518   
H266     H      0.192570000000     0.398790000000     0.740810000000     0.187408   
H267     H      0.085900000000     0.320050000000     0.736350000000     0.141261   
H268     H      0.082060000000     0.175750000000     0.718580000000     0.203766   
H269     H      0.399350000000     0.284100000000     0.756690000000     0.205016   
H270     H      0.138010000000     0.391650000000     0.736920000000     0.197405   
H271     H      0.083450000000     0.190670000000     0.755840000000     0.213772   
H272     H      0.343970000000     0.078160000000     0.738020000000     0.20537    
H273     H      0.145250000000     0.735410000000     0.693910000000     0.211426   
H274     H      0.240860000000     0.637940000000     0.784200000000     0.205266   
H275     H      0.336930000000     0.734840000000     0.693900000000     0.211354   
H276     H      0.241330000000     0.831990000000     0.784390000000     0.204663   
H277     H      0.195980000000     0.577810000000     0.740930000000     0.12551    
H278     H      0.289460000000     0.571200000000     0.740390000000     0.18725    
H279     H      0.391800000000     0.692730000000     0.756740000000     0.148716   
H280     H      0.399490000000     0.790440000000     0.717890000000     0.201645   
H281     H      0.286120000000     0.892240000000     0.740960000000     0.125575   
H282     H      0.192760000000     0.898830000000     0.740880000000     0.187271   
H283     H      0.090280000000     0.777100000000     0.756400000000     0.148901   
H284     H      0.082600000000     0.680160000000     0.718130000000     0.201822   
H285     H      0.399400000000     0.783930000000     0.756330000000     0.204757   
H286     H      0.138060000000     0.891720000000     0.737930000000     0.204618   
H287     H      0.082870000000     0.685760000000     0.756630000000     0.204861   
H288     H      0.344160000000     0.578360000000     0.737550000000     0.204683   
H289     H      0.836930000000     0.234570000000     0.693990000000     0.211168   
H290     H      0.741340000000     0.332060000000     0.784280000000     0.205461   
H291     H      0.645260000000     0.235170000000     0.693990000000     0.211429   
H292     H      0.740840000000     0.138000000000     0.784470000000     0.20499    
H293     H      0.786210000000     0.392170000000     0.740960000000     0.126122   
H294     H      0.692740000000     0.398790000000     0.740460000000     0.187765   
H295     H      0.590390000000     0.277290000000     0.756840000000     0.149296   
H296     H      0.582690000000     0.179640000000     0.717980000000     0.201598   
H297     H      0.696030000000     0.077770000000     0.741180000000     0.126201   
H298     H      0.789390000000     0.071160000000     0.740910000000     0.187673   
H299     H      0.891900000000     0.192880000000     0.756500000000     0.149865   
H300     H      0.899580000000     0.289760000000     0.718220000000     0.201427   
H301     H      0.582790000000     0.186050000000     0.756430000000     0.205202   
H302     H      0.844100000000     0.078270000000     0.738100000000     0.204648   
H303     H      0.899310000000     0.284240000000     0.756730000000     0.205128   
H304     H      0.638030000000     0.391640000000     0.737690000000     0.20452    
H305     H      0.741380000000     0.830810000000     0.694040000000     0.211451   
H306     H      0.644040000000     0.735060000000     0.784340000000     0.205168   
H307     H      0.740800000000     0.639180000000     0.693840000000     0.210913   
H308     H      0.838140000000     0.734570000000     0.784340000000     0.205204   
H309     H      0.583840000000     0.780010000000     0.740990000000     0.126206   
H310     H      0.577250000000     0.686600000000     0.740830000000     0.187496   
H311     H      0.699010000000     0.584130000000     0.756290000000     0.149002   
H312     H      0.796340000000     0.576620000000     0.717750000000     0.20161    
H313     H      0.898330000000     0.689880000000     0.741010000000     0.126051   
H314     H      0.904950000000     0.783240000000     0.740550000000     0.187631   
H315     H      0.783370000000     0.885600000000     0.756860000000     0.148771   
H316     H      0.686050000000     0.893420000000     0.718290000000     0.201981   
H317     H      0.790150000000     0.576610000000     0.756210000000     0.204892   
H318     H      0.897820000000     0.837940000000     0.737830000000     0.204393   
H319     H      0.691950000000     0.893100000000     0.756780000000     0.204664   
H320     H      0.584380000000     0.631920000000     0.737860000000     0.20428    
H321     H      0.350260000000     0.342220000000     0.557450000000     0.036063   
H322     H      0.418550000000     0.414810000000     0.627630000000     0.0353231  
H323     H      0.378260000000     0.375860000000     0.666700000000     0.0394515  
H324     H      0.309780000000     0.302880000000     0.596810000000     0.0389804  
H325     H      0.310180000000     0.302610000000     0.879390000000     0.0386527  
H326     H      0.379910000000     0.374390000000     0.809490000000     0.0391465  
H327     H      0.419160000000     0.414330000000     0.848580000000     0.0350314  
H328     H      0.349690000000     0.342860000000     0.918760000000     0.0356452  
H329     H      0.350280000000     0.627930000000     0.557370000000     0.0361218  
H330     H      0.418200000000     0.554970000000     0.627530000000     0.0352531  
H331     H      0.377850000000     0.593830000000     0.666600000000     0.0369978  
H332     H      0.309740000000     0.667210000000     0.596730000000     0.0389827  
H333     H      0.349810000000     0.627130000000     0.918690000000     0.0356819  
H334     H      0.419200000000     0.555630000000     0.848490000000     0.0345356  
H335     H      0.379870000000     0.595570000000     0.809400000000     0.0343962  
H336     H      0.310240000000     0.667370000000     0.879340000000     0.0386095  
H337     H      0.559330000000     0.559490000000     0.627580000000     0.035207   
H338     H      0.632770000000     0.626920000000     0.557420000000     0.036005   
H339     H      0.672430000000     0.667070000000     0.596780000000     0.0389305  
H340     H      0.598590000000     0.599470000000     0.666660000000     0.0368419  
H341     H      0.634460000000     0.625100000000     0.918740000000     0.0357288  
H342     H      0.563340000000     0.555300000000     0.848550000000     0.0344097  
H343     H      0.602880000000     0.595000000000     0.809460000000     0.0341975  
H344     H      0.674300000000     0.665040000000     0.879390000000     0.0386507  
H345     H      0.631770000000     0.342210000000     0.557500000000     0.0360807  
H346     H      0.563880000000     0.415140000000     0.627700000000     0.035116   
H347     H      0.604280000000     0.376240000000     0.666750000000     0.0370011  
H348     H      0.672330000000     0.302910000000     0.596830000000     0.0388821  
H349     H      0.672030000000     0.302560000000     0.879450000000     0.0386601  
H350     H      0.602350000000     0.374380000000     0.809540000000     0.0345116  
H351     H      0.563060000000     0.414290000000     0.848630000000     0.0346644  
H352     H      0.632480000000     0.342790000000     0.918820000000     0.03568    
H353     H      0.561910000000     0.774560000000     0.487730000000     0.0361391  
H354     H      0.420430000000     0.774550000000     0.987870000000     0.0344429  
H355     H      0.420440000000     0.695440000000     0.988380000000     0.0344139  
H356     H      0.561910000000     0.695440000000     0.488240000000     0.0361453  
H357     H      0.420310000000     0.195450000000     0.488110000000     0.036025   
H358     H      0.561790000000     0.195450000000     0.988210000000     0.0344224  
H359     H      0.561790000000     0.274550000000     0.988720000000     0.0343939  
H360     H      0.420310000000     0.274560000000     0.488620000000     0.036015   
H361     H      0.349110000000     0.843320000000     0.557480000000     0.036203   
H362     H      0.416970000000     0.916410000000     0.627610000000     0.0360611  
H363     H      0.377040000000     0.877170000000     0.666710000000     0.0400194  
H364     H      0.308980000000     0.803700000000     0.596860000000     0.0392578  
H365     H      0.380900000000     0.873360000000     0.809520000000     0.0396415  
H366     H      0.310910000000     0.801880000000     0.879440000000     0.0384101  
H367     H      0.350830000000     0.841760000000     0.918800000000     0.0354477  
H368     H      0.420570000000     0.912930000000     0.848600000000     0.0355145  
H369     H      0.416880000000     0.053380000000     0.627690000000     0.0359173  
H370     H      0.349210000000     0.126600000000     0.557540000000     0.0362285  
H371     H      0.309010000000     0.166190000000     0.596890000000     0.0391729  
H372     H      0.376840000000     0.092580000000     0.666780000000     0.0375384  
H373     H      0.350850000000     0.128300000000     0.918860000000     0.0355111  
H374     H      0.420500000000     0.057070000000     0.848650000000     0.0351624  
H375     H      0.380810000000     0.096620000000     0.809580000000     0.0350067  
H376     H      0.310900000000     0.168170000000     0.879500000000     0.0384146  
H377     H      0.605050000000     0.092800000000     0.666870000000     0.0400638  
H378     H      0.673070000000     0.166190000000     0.596970000000     0.0391644  
H379     H      0.632920000000     0.126550000000     0.557620000000     0.0361943  
H380     H      0.565070000000     0.053520000000     0.627780000000     0.0359733  
H381     H      0.561670000000     0.057140000000     0.848740000000     0.035665   
H382     H      0.631440000000     0.128320000000     0.918920000000     0.0355038  
H383     H      0.671340000000     0.168200000000     0.879540000000     0.0384517  
H384     H      0.601310000000     0.096690000000     0.809650000000     0.0397515  
H385     H      0.560910000000     0.912180000000     0.627730000000     0.0360154  
H386     H      0.633810000000     0.844180000000     0.557560000000     0.0362839  
H387     H      0.673140000000     0.803720000000     0.596920000000     0.0392232  
H388     H      0.599870000000     0.871910000000     0.666810000000     0.0401419  
H389     H      0.633320000000     0.843590000000     0.918870000000     0.0354298  
H390     H      0.561900000000     0.913100000000     0.848690000000     0.0357951  
H391     H      0.601770000000     0.873750000000     0.809600000000     0.0400101  
H392     H      0.673510000000     0.803980000000     0.879490000000     0.0384178  
H393     H      0.780660000000     0.414200000000     0.986610000000     0.0345974  
H394     H      0.780660000000     0.555650000000     0.486730000000     0.0360353  
H395     H      0.701530000000     0.555650000000     0.486720000000     0.0360356  
H396     H      0.701530000000     0.414200000000     0.986610000000     0.0345773  
H397     H      0.201540000000     0.414320000000     0.986360000000     0.0345908  
H398     H      0.201520000000     0.555770000000     0.486270000000     0.0361531  
H399     H      0.280660000000     0.555770000000     0.486270000000     0.0361667  
H400     H      0.280670000000     0.414320000000     0.986360000000     0.0346187  
H401     H      0.918520000000     0.414940000000     0.627710000000     0.0353128  
H402     H      0.850370000000     0.342250000000     0.557520000000     0.0360602  
H403     H      0.809860000000     0.302920000000     0.596860000000     0.0389126  
H404     H      0.878200000000     0.375990000000     0.666770000000     0.0394646  
H405     H      0.919130000000     0.414330000000     0.848650000000     0.0355869  
H406     H      0.849650000000     0.342830000000     0.918820000000     0.035671   
H407     H      0.810130000000     0.302610000000     0.879430000000     0.0387525  
H408     H      0.879870000000     0.374410000000     0.809550000000     0.0395767  
H409     H      0.849470000000     0.626960000000     0.557440000000     0.0359858  
H410     H      0.922680000000     0.559280000000     0.627590000000     0.035853   
H411     H      0.883370000000     0.599190000000     0.666680000000     0.0401132  
H412     H      0.809780000000     0.667060000000     0.596810000000     0.0389515  
H413     H      0.918880000000     0.555300000000     0.848570000000     0.0357269  
H414     H      0.847780000000     0.625160000000     0.918750000000     0.0356955  
H415     H      0.807930000000     0.665080000000     0.879380000000     0.0386901  
H416     H      0.879340000000     0.594970000000     0.809480000000     0.0398748  
H417     H      0.131960000000     0.627870000000     0.557390000000     0.0360997  
H418     H      0.063790000000     0.555130000000     0.627540000000     0.0356513  
H419     H      0.104070000000     0.594040000000     0.666620000000     0.0397317  
H420     H      0.172440000000     0.667180000000     0.596760000000     0.0390014  
H421     H      0.132440000000     0.627090000000     0.918690000000     0.0356561  
H422     H      0.063000000000     0.555590000000     0.848510000000     0.0354568  
H423     H      0.102290000000     0.595520000000     0.809420000000     0.0395296  
H424     H      0.171980000000     0.667320000000     0.879330000000     0.0386196  
H425     H      0.131910000000     0.342190000000     0.557450000000     0.0361101  
H426     H      0.063690000000     0.414870000000     0.627620000000     0.0349964  
H427     H      0.104020000000     0.375960000000     0.666700000000     0.0325348  
H428     H      0.172420000000     0.302890000000     0.596820000000     0.0388546  
H429     H      0.102310000000     0.374460000000     0.809450000000     0.0334908  
H430     H      0.171990000000     0.302620000000     0.879350000000     0.0387407  
H431     H      0.132460000000     0.342830000000     0.918720000000     0.0357466  
H432     H      0.063030000000     0.414370000000     0.848560000000     0.035107   
H433     H      0.780660000000     0.055810000000     0.989730000000     0.0344946  
H434     H      0.780650000000     0.914360000000     0.489910000000     0.0360571  
H435     H      0.701530000000     0.914360000000     0.489910000000     0.0360516  
H436     H      0.701520000000     0.055810000000     0.989740000000     0.03451    
H437     H      0.280650000000     0.055680000000     0.489520000000     0.036155   
H438     H      0.280660000000     0.914240000000     0.989420000000     0.0345278  
H439     H      0.201530000000     0.914240000000     0.989410000000     0.0345159  
H440     H      0.201520000000     0.055680000000     0.489510000000     0.036165   
H441     H      0.920280000000     0.774550000000     0.987730000000     0.0345394  
H442     H      0.061760000000     0.774540000000     0.487870000000     0.0360134  
H443     H      0.061750000000     0.695440000000     0.488390000000     0.0360355  
H444     H      0.920280000000     0.695430000000     0.988250000000     0.0345424  
H445     H      0.920390000000     0.195440000000     0.488200000000     0.0360127  
H446     H      0.061870000000     0.195430000000     0.988100000000     0.0344688  
H447     H      0.061880000000     0.274550000000     0.988610000000     0.0344161  
H448     H      0.920400000000     0.274550000000     0.488720000000     0.0360381  
H449     H      0.848330000000     0.844220000000     0.557550000000     0.0363094  
H450     H      0.921450000000     0.911970000000     0.627720000000     0.0351142  
H451     H      0.882550000000     0.871630000000     0.666790000000     0.0368865  
H452     H      0.809030000000     0.803710000000     0.596890000000     0.0391957  
H453     H      0.920230000000     0.913100000000     0.848670000000     0.0343031  
H454     H      0.848810000000     0.843640000000     0.918870000000     0.0354627  
H455     H      0.808620000000     0.804010000000     0.879510000000     0.0383883  
H456     H      0.880370000000     0.873720000000     0.809590000000     0.0341511  
H457     H      0.849300000000     0.126590000000     0.557600000000     0.0361943  
H458     H      0.916900000000     0.053330000000     0.627770000000     0.0353416  
H459     H      0.876860000000     0.092560000000     0.666840000000     0.0370693  
H460     H      0.809100000000     0.166200000000     0.596940000000     0.0391192  
H461     H      0.880830000000     0.096720000000     0.809640000000     0.0345966  
H462     H      0.810880000000     0.168250000000     0.879550000000     0.0384401  
H463     H      0.850800000000     0.128370000000     0.918920000000     0.0355327  
H464     H      0.920500000000     0.057160000000     0.848720000000     0.0347063  
H465     H      0.173170000000     0.166180000000     0.596910000000     0.0391743  
H466     H      0.105010000000     0.092870000000     0.666790000000     0.0390746  
H467     H      0.065050000000     0.053610000000     0.627700000000     0.0354883  
H468     H      0.133030000000     0.126550000000     0.557540000000     0.0362117  
H469     H      0.131390000000     0.128250000000     0.918850000000     0.0355292  
H470     H      0.061620000000     0.057090000000     0.848660000000     0.0351136  
H471     H      0.101250000000     0.096670000000     0.809570000000     0.0398434  
H472     H      0.171290000000     0.168140000000     0.879470000000     0.0385682  
H473     H      0.133030000000     0.843270000000     0.557460000000     0.0362369  
H474     H      0.065400000000     0.916580000000     0.627600000000     0.0354776  
H475     H      0.105400000000     0.877390000000     0.666690000000     0.0370671  
H476     H      0.173200000000     0.803680000000     0.596840000000     0.03921    
H477     H      0.061600000000     0.912880000000     0.848580000000     0.0344353  
H478     H      0.131300000000     0.841710000000     0.918800000000     0.0354869  
H479     H      0.171240000000     0.801820000000     0.879450000000     0.0383577  
H480     H      0.101300000000     0.873310000000     0.809510000000     0.0343371  
N1       N      0.387800000000     0.381780000000     0.089280000000    -0.173773   
N2       N      0.340620000000     0.336080000000     0.134990000000    -0.170776   
N3       N      0.341710000000     0.335160000000     0.341200000000    -0.171037   
N4       N      0.387700000000     0.381960000000     0.386920000000    -0.174638   
N5       N      0.387640000000     0.588200000000     0.089190000000    -0.173569   
N6       N      0.340410000000     0.633820000000     0.134910000000    -0.170741   
N7       N      0.387780000000     0.588010000000     0.386840000000    -0.174515   
N8       N      0.341720000000     0.634820000000     0.341140000000    -0.171647   
N9       N      0.592850000000     0.589750000000     0.089250000000    -0.173538   
N10      N      0.638930000000     0.636540000000     0.134960000000    -0.170709   
N11      N      0.595480000000     0.586970000000     0.386900000000    -0.174445   
N12      N      0.641820000000     0.633470000000     0.341190000000    -0.171663   
N13      N      0.594420000000     0.381930000000     0.089350000000    -0.173566   
N14      N      0.641700000000     0.336260000000     0.135030000000    -0.17071    
N15      N      0.640520000000     0.335130000000     0.341260000000    -0.171614   
N16      N      0.594500000000     0.381900000000     0.386980000000    -0.17449    
N17      N      0.491170000000     0.780940000000     0.987760000000    -0.176953   
N18      N      0.491180000000     0.689050000000     0.988350000000    -0.177035   
N19      N      0.491050000000     0.189060000000     0.488100000000    -0.176692   
N20      N      0.491050000000     0.280950000000     0.488700000000    -0.176779   
N21      N      0.386480000000     0.883070000000     0.089290000000    -0.173747   
N22      N      0.339720000000     0.837050000000     0.135030000000    -0.170764   
N23      N      0.342460000000     0.834370000000     0.341240000000    -0.171035   
N24      N      0.388940000000     0.880760000000     0.386950000000    -0.174589   
N25      N      0.386500000000     0.086800000000     0.089370000000    -0.173568   
N26      N      0.339650000000     0.132790000000     0.135070000000    -0.170652   
N27      N      0.388910000000     0.089270000000     0.387010000000    -0.174383   
N28      N      0.342410000000     0.135640000000     0.341300000000    -0.171668   
N29      N      0.642350000000     0.132880000000     0.135150000000    -0.170663   
N30      N      0.595550000000     0.086820000000     0.089450000000    -0.173778   
N31      N      0.593320000000     0.089320000000     0.387090000000    -0.174536   
N32      N      0.639770000000     0.135690000000     0.341360000000    -0.171079   
N33      N      0.594100000000     0.881570000000     0.089390000000    -0.173722   
N34      N      0.639790000000     0.834420000000     0.135100000000    -0.170727   
N35      N      0.594250000000     0.881630000000     0.387030000000    -0.174598   
N36      N      0.640980000000     0.835520000000     0.341310000000    -0.171039   
N37      N      0.787050000000     0.484930000000     0.486800000000    -0.176743   
N38      N      0.695140000000     0.484930000000     0.486790000000    -0.176739   
N39      N      0.195140000000     0.485040000000     0.986460000000    -0.17701    
N40      N      0.287050000000     0.485050000000     0.986450000000    -0.176928   
N41      N      0.887840000000     0.381860000000     0.089360000000    -0.173797   
N42      N      0.840620000000     0.336160000000     0.135050000000    -0.170789   
N43      N      0.887670000000     0.381940000000     0.386990000000    -0.174582   
N44      N      0.841670000000     0.335170000000     0.341250000000    -0.171057   
N45      N      0.889290000000     0.589670000000     0.089260000000    -0.173813   
N46      N      0.843170000000     0.636410000000     0.134980000000    -0.170685   
N47      N      0.886740000000     0.587000000000     0.386920000000    -0.17463    
N48      N      0.840410000000     0.633470000000     0.341190000000    -0.171038   
N49      N      0.094480000000     0.588240000000     0.089210000000    -0.173777   
N50      N      0.141650000000     0.633900000000     0.134930000000    -0.170762   
N51      N      0.094440000000     0.587980000000     0.386860000000    -0.174584   
N52      N      0.140470000000     0.634770000000     0.341140000000    -0.17107    
N53      N      0.094410000000     0.381790000000     0.089280000000    -0.173508   
N54      N      0.141620000000     0.336130000000     0.134990000000    -0.171529   
N55      N      0.140480000000     0.335190000000     0.341160000000    -0.171554   
N56      N      0.094470000000     0.381970000000     0.386900000000    -0.174298   
N57      N      0.787040000000     0.985080000000     0.489690000000    -0.176714   
N58      N      0.695140000000     0.985080000000     0.989690000000    -0.176975   
N59      N      0.287050000000     0.984960000000     0.489350000000    -0.176759   
N60      N      0.195130000000     0.984960000000     0.989350000000    -0.177058   
N61      N      0.991020000000     0.780940000000     0.987760000000    -0.177073   
N62      N      0.991010000000     0.689050000000     0.988360000000    -0.176997   
N63      N      0.991130000000     0.189050000000     0.488100000000    -0.176773   
N64      N      0.991140000000     0.280940000000     0.488690000000    -0.176781   
N65      N      0.888140000000     0.881500000000     0.089380000000    -0.173596   
N66      N      0.842480000000     0.834290000000     0.135080000000    -0.170682   
N67      N      0.887890000000     0.881650000000     0.387020000000    -0.174509   
N68      N      0.841150000000     0.835520000000     0.341310000000    -0.171716   
N69      N      0.886560000000     0.086760000000     0.089430000000    -0.173581   
N70      N      0.839700000000     0.132780000000     0.135130000000    -0.170628   
N71      N      0.842410000000     0.135730000000     0.341360000000    -0.171621   
N72      N      0.888880000000     0.089350000000     0.387080000000    -0.174435   
N73      N      0.142380000000     0.132910000000     0.135090000000    -0.170838   
N74      N      0.095600000000     0.086870000000     0.089370000000    -0.173766   
N75      N      0.093270000000     0.089250000000     0.387010000000    -0.174565   
N76      N      0.139710000000     0.135650000000     0.341290000000    -0.170831   
N77      N      0.095770000000     0.883110000000     0.089280000000    -0.173532   
N78      N      0.142570000000     0.837130000000     0.135010000000    -0.170703   
N79      N      0.093210000000     0.880720000000     0.386940000000    -0.174478   
N80      N      0.139710000000     0.834310000000     0.341240000000    -0.171743   
N81      N      0.387800000000     0.381780000000     0.589280000000    -0.174454   
N82      N      0.340620000000     0.336080000000     0.634990000000    -0.170846   
N83      N      0.341710000000     0.335160000000     0.841200000000    -0.171034   
N84      N      0.387700000000     0.381970000000     0.886920000000    -0.174539   
N85      N      0.387640000000     0.588200000000     0.589200000000    -0.174233   
N86      N      0.340410000000     0.633820000000     0.634910000000    -0.170822   
N87      N      0.387780000000     0.588010000000     0.886840000000    -0.174372   
N88      N      0.341720000000     0.634820000000     0.841140000000    -0.171634   
N89      N      0.592850000000     0.589750000000     0.589250000000    -0.174244   
N90      N      0.638930000000     0.636540000000     0.634960000000    -0.170737   
N91      N      0.595480000000     0.586970000000     0.886900000000    -0.174354   
N92      N      0.641830000000     0.633470000000     0.841190000000    -0.171682   
N93      N      0.594420000000     0.381930000000     0.589350000000    -0.174263   
N94      N      0.641700000000     0.336260000000     0.635030000000    -0.17078    
N95      N      0.640520000000     0.335130000000     0.841260000000    -0.171616   
N96      N      0.594500000000     0.381900000000     0.886980000000    -0.174381   
N97      N      0.491170000000     0.780940000000     0.487760000000    -0.176688   
N98      N      0.491180000000     0.689050000000     0.488350000000    -0.176728   
N99      N      0.491050000000     0.189060000000     0.988100000000    -0.176973   
N100     N      0.491050000000     0.280950000000     0.988700000000    -0.177041   
N101     N      0.386480000000     0.883060000000     0.589290000000    -0.174423   
N102     N      0.339720000000     0.837050000000     0.635030000000    -0.170829   
N103     N      0.342460000000     0.834370000000     0.841240000000    -0.171008   
N104     N      0.388940000000     0.880760000000     0.886950000000    -0.174483   
N105     N      0.386500000000     0.086800000000     0.589370000000    -0.174253   
N106     N      0.339650000000     0.132790000000     0.635070000000    -0.17072    
N107     N      0.388910000000     0.089270000000     0.887010000000    -0.174291   
N108     N      0.342410000000     0.135640000000     0.841300000000    -0.171625   
N109     N      0.642360000000     0.132880000000     0.635150000000    -0.170762   
N110     N      0.595550000000     0.086820000000     0.589450000000    -0.174416   
N111     N      0.593320000000     0.089320000000     0.887090000000    -0.174435   
N112     N      0.639770000000     0.135690000000     0.841360000000    -0.171046   
N113     N      0.594100000000     0.881570000000     0.589390000000    -0.174425   
N114     N      0.639800000000     0.834420000000     0.635100000000    -0.170869   
N115     N      0.594250000000     0.881630000000     0.887030000000    -0.174452   
N116     N      0.640980000000     0.835520000000     0.841310000000    -0.171011   
N117     N      0.787050000000     0.484920000000     0.986790000000    -0.177006   
N118     N      0.695140000000     0.484930000000     0.986790000000    -0.177034   
N119     N      0.195140000000     0.485040000000     0.486460000000    -0.176702   
N120     N      0.287050000000     0.485050000000     0.486450000000    -0.176646   
N121     N      0.887850000000     0.381860000000     0.589360000000    -0.174477   
N122     N      0.840620000000     0.336160000000     0.635050000000    -0.170871   
N123     N      0.887670000000     0.381940000000     0.886990000000    -0.174482   
N124     N      0.841670000000     0.335170000000     0.841250000000    -0.171003   
N125     N      0.889290000000     0.589670000000     0.589260000000    -0.174487   
N126     N      0.843170000000     0.636410000000     0.634980000000    -0.170762   
N127     N      0.886740000000     0.587000000000     0.886910000000    -0.174452   
N128     N      0.840410000000     0.633470000000     0.841190000000    -0.171018   
N129     N      0.094480000000     0.588240000000     0.589210000000    -0.174432   
N130     N      0.141650000000     0.633900000000     0.634930000000    -0.170872   
N131     N      0.094440000000     0.587970000000     0.886850000000    -0.174455   
N132     N      0.140470000000     0.634770000000     0.841140000000    -0.17102    
N133     N      0.094410000000     0.381790000000     0.589280000000    -0.174197   
N134     N      0.141620000000     0.336130000000     0.634990000000    -0.17159    
N135     N      0.140480000000     0.335190000000     0.841160000000    -0.171528   
N136     N      0.094470000000     0.381970000000     0.886900000000    -0.174168   
N137     N      0.787040000000     0.985080000000     0.989690000000    -0.177008   
N138     N      0.695140000000     0.985080000000     0.489690000000    -0.176727   
N139     N      0.287050000000     0.984960000000     0.989350000000    -0.177057   
N140     N      0.195130000000     0.984960000000     0.489350000000    -0.176739   
N141     N      0.991020000000     0.780940000000     0.487760000000    -0.176794   
N142     N      0.991010000000     0.689050000000     0.488360000000    -0.176707   
N143     N      0.991130000000     0.189050000000     0.988100000000    -0.17703    
N144     N      0.991140000000     0.280940000000     0.988690000000    -0.17708    
N145     N      0.888140000000     0.881500000000     0.589380000000    -0.174266   
N146     N      0.842480000000     0.834290000000     0.635080000000    -0.17073    
N147     N      0.887890000000     0.881650000000     0.887020000000    -0.174369   
N148     N      0.841150000000     0.835520000000     0.841310000000    -0.171667   
N149     N      0.886560000000     0.086760000000     0.589430000000    -0.174265   
N150     N      0.839700000000     0.132780000000     0.635130000000    -0.170699   
N151     N      0.842410000000     0.135730000000     0.841360000000    -0.171678   
N152     N      0.888880000000     0.089350000000     0.887080000000    -0.174304   
N153     N      0.142380000000     0.132910000000     0.635090000000    -0.170924   
N154     N      0.095600000000     0.086870000000     0.589370000000    -0.174438   
N155     N      0.093270000000     0.089250000000     0.887010000000    -0.174459   
N156     N      0.139710000000     0.135650000000     0.841290000000    -0.170808   
N157     N      0.095770000000     0.883110000000     0.589280000000    -0.174178   
N158     N      0.142570000000     0.837130000000     0.635000000000    -0.170714   
N159     N      0.093210000000     0.880720000000     0.886940000000    -0.174394   
N160     N      0.139710000000     0.834320000000     0.841240000000    -0.171711   
O1       O      0.079330000000     0.895490000000     0.438040000000    -0.374126   
O2       O      0.902790000000     0.074560000000     0.438190000000    -0.373683   
O3       O      0.939880000000     0.933420000000     0.400570000000    -0.37344    
O4       O      0.041870000000     0.036910000000     0.400570000000    -0.3732     
O5       O      0.079360000000     0.074510000000     0.438120000000    -0.373843   
O6       O      0.902240000000     0.895990000000     0.438130000000    -0.373875   
O7       O      0.940260000000     0.036990000000     0.400610000000    -0.373157   
O8       O      0.041800000000     0.933070000000     0.400500000000    -0.373329   
O9       O      0.991070000000     0.048050000000     0.456720000000    -0.508452   
O10      O      0.991020000000     0.921910000000     0.456650000000    -0.508458   
O11      O      0.927830000000     0.985050000000     0.456650000000    -0.654614   
O12      O      0.054320000000     0.985000000000     0.456570000000    -0.654661   
O13      O      0.901720000000     0.073280000000     0.038340000000    -0.365779   
O14      O      0.080580000000     0.896600000000     0.038180000000    -0.365576   
O15      O      0.852360000000     0.947400000000     0.989100000000    -0.380958   
O16      O      0.028800000000     0.123730000000     0.487960000000    -0.379484   
O17      O      0.129810000000     0.022630000000     0.488830000000    -0.379461   
O18      O      0.953360000000     0.846270000000     0.987710000000    -0.380872   
O19      O      0.939890000000     0.933480000000     0.075840000000    -0.372527   
O20      O      0.043190000000     0.035560000000     0.075820000000    -0.372234   
O21      O      0.902010000000     0.896290000000     0.038280000000    -0.365631   
O22      O      0.080560000000     0.073270000000     0.038270000000    -0.365568   
O23      O      0.852380000000     0.022730000000     0.488980000000    -0.379515   
O24      O      0.028700000000     0.846250000000     0.987800000000    -0.381041   
O25      O      0.129810000000     0.947300000000     0.988780000000    -0.38103    
O26      O      0.953450000000     0.123740000000     0.488020000000    -0.379643   
O27      O      0.938950000000     0.035400000000     0.075880000000    -0.372365   
O28      O      0.043370000000     0.934430000000     0.075750000000    -0.371982   
O29      O      0.054110000000     0.984940000000     0.019610000000    -0.497397   
O30      O      0.928070000000     0.984980000000     0.019710000000    -0.497481   
O31      O      0.991120000000     0.921750000000     0.019730000000    -0.644937   
O32      O      0.991130000000     0.048190000000     0.019840000000    -0.644803   
O33      O      0.028810000000     0.346260000000     0.988610000000    -0.380946   
O34      O      0.852360000000     0.522600000000     0.487440000000    -0.379704   
O35      O      0.902470000000     0.395900000000     0.038260000000    -0.366172   
O36      O      0.902030000000     0.396220000000     0.438100000000    -0.373487   
O37      O      0.939400000000     0.433910000000     0.400540000000    -0.373251   
O38      O      0.939880000000     0.433600000000     0.075800000000    -0.372422   
O39      O      0.852380000000     0.447270000000     0.487350000000    -0.379533   
O40      O      0.953460000000     0.346250000000     0.488670000000    -0.37955    
O41      O      0.928040000000     0.484940000000     0.456650000000    -0.508251   
O42      O      0.991150000000     0.421900000000     0.019670000000    -0.49741    
O43      O      0.927900000000     0.485020000000     0.019720000000    -0.644798   
O44      O      0.991090000000     0.421780000000     0.456580000000    -0.655377   
O45      O      0.953350000000     0.623720000000     0.488360000000    -0.379567   
O46      O      0.129830000000     0.447370000000     0.987180000000    -0.380941   
O47      O      0.940730000000     0.537370000000     0.075720000000    -0.371883   
O48      O      0.939060000000     0.535600000000     0.400480000000    -0.373324   
O49      O      0.042750000000     0.433970000000     0.400470000000    -0.373313   
O50      O      0.042350000000     0.433480000000     0.075730000000    -0.372132   
O51      O      0.079830000000     0.574200000000     0.038100000000    -0.365964   
O52      O      0.080090000000     0.573720000000     0.437960000000    -0.373756   
O53      O      0.042470000000     0.536520000000     0.075680000000    -0.371893   
O54      O      0.042700000000     0.535980000000     0.400430000000    -0.373341   
O55      O      0.902740000000     0.574460000000     0.038160000000    -0.366171   
O56      O      0.079840000000     0.395890000000     0.038170000000    -0.366044   
O57      O      0.080120000000     0.396230000000     0.438010000000    -0.373447   
O58      O      0.901550000000     0.573190000000     0.438020000000    -0.373468   
O59      O      0.028700000000     0.623740000000     0.988470000000    -0.380904   
O60      O      0.129810000000     0.522700000000     0.987140000000    -0.380941   
O61      O      0.054160000000     0.484980000000     0.456590000000    -0.508292   
O62      O      0.991110000000     0.548100000000     0.019580000000    -0.49731    
O63      O      0.054330000000     0.485030000000     0.019610000000    -0.644768   
O64      O      0.991040000000     0.548180000000     0.456500000000    -0.655266   
O65      O      0.352370000000     0.947300000000     0.988790000000    -0.380952   
O66      O      0.528730000000     0.123750000000     0.488020000000    -0.379662   
O67      O      0.401610000000     0.073260000000     0.038270000000    -0.365679   
O68      O      0.402830000000     0.074520000000     0.438120000000    -0.3738     
O69      O      0.440320000000     0.036920000000     0.400560000000    -0.372958   
O70      O      0.438940000000     0.035520000000     0.075820000000    -0.372139   
O71      O      0.453380000000     0.123740000000     0.487970000000    -0.379637   
O72      O      0.352370000000     0.022630000000     0.488830000000    -0.379515   
O73      O      0.491110000000     0.048060000000     0.456730000000    -0.508529   
O74      O      0.428070000000     0.984950000000     0.019620000000    -0.497548   
O75      O      0.491050000000     0.048200000000     0.019850000000    -0.64508    
O76      O      0.427860000000     0.985000000000     0.456580000000    -0.654646   
O77      O      0.629800000000     0.022740000000     0.489000000000    -0.379425   
O78      O      0.453480000000     0.846250000000     0.987810000000    -0.381048   
O79      O      0.543180000000     0.035450000000     0.075890000000    -0.372171   
O80      O      0.541930000000     0.036990000000     0.400630000000    -0.372877   
O81      O      0.440370000000     0.933090000000     0.400520000000    -0.373115   
O82      O      0.438850000000     0.934400000000     0.075760000000    -0.371898   
O83      O      0.580180000000     0.896300000000     0.038290000000    -0.365618   
O84      O      0.579930000000     0.895970000000     0.438140000000    -0.373966   
O85      O      0.542330000000     0.933530000000     0.075850000000    -0.372249   
O86      O      0.542290000000     0.933410000000     0.400590000000    -0.373107   
O87      O      0.580450000000     0.073300000000     0.038350000000    -0.365686   
O88      O      0.401610000000     0.896600000000     0.038190000000    -0.365601   
O89      O      0.402830000000     0.895510000000     0.438060000000    -0.374041   
O90      O      0.579410000000     0.074560000000     0.438210000000    -0.373703   
O91      O      0.629820000000     0.947400000000     0.989100000000    -0.380918   
O92      O      0.528830000000     0.846270000000     0.987720000000    -0.380891   
O93      O      0.491150000000     0.921920000000     0.456670000000    -0.508531   
O94      O      0.554110000000     0.984980000000     0.019720000000    -0.497598   
O95      O      0.491060000000     0.921750000000     0.019740000000    -0.645106   
O96      O      0.554350000000     0.985050000000     0.456660000000    -0.654692   
O97      O      0.352380000000     0.522710000000     0.987130000000    -0.380863   
O98      O      0.528730000000     0.346260000000     0.488670000000    -0.379661   
O99      O      0.402060000000     0.396240000000     0.438030000000    -0.373644   
O100     O      0.402350000000     0.395900000000     0.038170000000    -0.366032   
O101     O      0.439860000000     0.433470000000     0.075740000000    -0.372094   
O102     O      0.439420000000     0.433960000000     0.400480000000    -0.373525   
O103     O      0.453390000000     0.346270000000     0.488610000000    -0.379646   
O104     O      0.352370000000     0.447370000000     0.487180000000    -0.37955    
O105     O      0.491050000000     0.421910000000     0.019680000000    -0.497284   
O106     O      0.428030000000     0.484990000000     0.456580000000    -0.508226   
O107     O      0.491100000000     0.421790000000     0.456570000000    -0.655388   
O108     O      0.427860000000     0.485050000000     0.019610000000    -0.645113   
O109     O      0.629810000000     0.447270000000     0.487340000000    -0.379554   
O110     O      0.453490000000     0.623740000000     0.988460000000    -0.380978   
O111     O      0.542770000000     0.433890000000     0.400520000000    -0.373407   
O112     O      0.542360000000     0.433650000000     0.075800000000    -0.372449   
O113     O      0.439690000000     0.536500000000     0.075670000000    -0.372078   
O114     O      0.439500000000     0.536000000000     0.400410000000    -0.373591   
O115     O      0.580650000000     0.573170000000     0.438010000000    -0.373473   
O116     O      0.579440000000     0.574480000000     0.038150000000    -0.366123   
O117     O      0.543150000000     0.535580000000     0.400460000000    -0.373527   
O118     O      0.541420000000     0.537420000000     0.075710000000    -0.37192    
O119     O      0.580140000000     0.396210000000     0.438090000000    -0.3733     
O120     O      0.402120000000     0.573730000000     0.437950000000    -0.373692   
O121     O      0.402350000000     0.574200000000     0.038090000000    -0.365922   
O122     O      0.579730000000     0.395920000000     0.038250000000    -0.36621    
O123     O      0.629830000000     0.522600000000     0.987430000000    -0.381135   
O124     O      0.528840000000     0.623730000000     0.988340000000    -0.380993   
O125     O      0.491080000000     0.548100000000     0.019570000000    -0.497281   
O126     O      0.554150000000     0.484940000000     0.456640000000    -0.508236   
O127     O      0.491160000000     0.548190000000     0.456490000000    -0.655197   
O128     O      0.554290000000     0.485030000000     0.019710000000    -0.644991   
O129     O      0.154470000000     0.322540000000     0.289900000000    -0.361435   
O130     O      0.191930000000     0.283130000000     0.326570000000    -0.348845   
O131     O      0.156480000000     0.145470000000     0.186340000000    -0.359727   
O132     O      0.192560000000     0.186190000000     0.149700000000    -0.34845    
O133     O      0.154060000000     0.147890000000     0.290030000000    -0.359966   
O134     O      0.191570000000     0.187330000000     0.326660000000    -0.348727   
O135     O      0.156120000000     0.324030000000     0.186240000000    -0.362237   
O136     O      0.192400000000     0.283410000000     0.149640000000    -0.348873   
O137     O      0.098280000000     0.289820000000     0.237420000000    -0.33581    
O138     O      0.167390000000     0.379410000000     0.238690000000    -0.515242   
O139     O      0.098570000000     0.180870000000     0.237380000000    -0.51226    
O140     O      0.165740000000     0.090350000000     0.238990000000    -0.327197   
O141     O      0.170710000000     0.235280000000     0.269360000000    -0.46041    
O142     O      0.170990000000     0.235170000000     0.207150000000    -0.610311   
O143     O      0.326140000000     0.323940000000     0.186240000000    -0.359176   
O144     O      0.289930000000     0.283270000000     0.149630000000    -0.348425   
O145     O      0.327960000000     0.147840000000     0.290060000000    -0.365378   
O146     O      0.290480000000     0.187260000000     0.326700000000    -0.349787   
O147     O      0.325490000000     0.145300000000     0.186320000000    -0.354391   
O148     O      0.289470000000     0.186070000000     0.149680000000    -0.348211   
O149     O      0.327760000000     0.322480000000     0.289940000000    -0.36163    
O150     O      0.290360000000     0.283000000000     0.326600000000    -0.349249   
O151     O      0.383660000000     0.289190000000     0.237550000000    -0.513551   
O152     O      0.316350000000     0.379560000000     0.238630000000    -0.326715   
O153     O      0.384100000000     0.178660000000     0.236510000000    -0.339996   
O154     O      0.314550000000     0.090440000000     0.239190000000    -0.512939   
O155     O      0.311210000000     0.234620000000     0.207180000000    -0.61187    
O156     O      0.311510000000     0.234690000000     0.269360000000    -0.469581   
O157     O      0.241400000000     0.306580000000     0.204750000000    -0.475198   
O158     O      0.240820000000     0.163690000000     0.271180000000    -0.624721   
O159     O      0.241370000000     0.306240000000     0.271060000000    -0.624256   
O160     O      0.240800000000     0.163250000000     0.204850000000    -0.474919   
O161     O      0.154160000000     0.822100000000     0.290000000000    -0.365506   
O162     O      0.191670000000     0.782710000000     0.326650000000    -0.349677   
O163     O      0.156130000000     0.646000000000     0.186180000000    -0.359251   
O164     O      0.192310000000     0.686720000000     0.149590000000    -0.348588   
O165     O      0.154460000000     0.647430000000     0.289880000000    -0.361447   
O166     O      0.191820000000     0.686940000000     0.326550000000    -0.349165   
O167     O      0.156690000000     0.824630000000     0.186270000000    -0.354374   
O168     O      0.192730000000     0.783860000000     0.149640000000    -0.348275   
O169     O      0.098050000000     0.791180000000     0.236450000000    -0.340612   
O170     O      0.167500000000     0.879480000000     0.239150000000    -0.512664   
O171     O      0.098560000000     0.680640000000     0.237490000000    -0.513867   
O172     O      0.165950000000     0.590340000000     0.238590000000    -0.326564   
O173     O      0.170690000000     0.735220000000     0.269310000000    -0.469578   
O174     O      0.170970000000     0.735300000000     0.207140000000    -0.612008   
O175     O      0.325640000000     0.824530000000     0.186290000000    -0.359113   
O176     O      0.289590000000     0.783760000000     0.149670000000    -0.348507   
O177     O      0.327680000000     0.647470000000     0.289890000000    -0.36555    
O178     O      0.290270000000     0.686890000000     0.326570000000    -0.34969    
O179     O      0.325900000000     0.645900000000     0.186160000000    -0.354579   
O180     O      0.289730000000     0.686620000000     0.149560000000    -0.348384   
O181     O      0.328070000000     0.822150000000     0.289990000000    -0.361389   
O182     O      0.290610000000     0.782670000000     0.326620000000    -0.349306   
O183     O      0.383610000000     0.789490000000     0.237280000000    -0.513477   
O184     O      0.316210000000     0.879710000000     0.238960000000    -0.326335   
O185     O      0.384150000000     0.678970000000     0.236660000000    -0.34043    
O186     O      0.314720000000     0.590590000000     0.238770000000    -0.512671   
O187     O      0.311210000000     0.734860000000     0.207140000000    -0.611832   
O188     O      0.311490000000     0.734750000000     0.269310000000    -0.469656   
O189     O      0.241340000000     0.806730000000     0.204810000000    -0.474637   
O190     O      0.240870000000     0.663720000000     0.271020000000    -0.624261   
O191     O      0.241310000000     0.806280000000     0.271140000000    -0.62414    
O192     O      0.240850000000     0.663360000000     0.204700000000    -0.474974   
O193     O      0.827990000000     0.147920000000     0.290100000000    -0.36535    
O194     O      0.790480000000     0.187320000000     0.326740000000    -0.349687   
O195     O      0.826100000000     0.324030000000     0.186290000000    -0.359174   
O196     O      0.789930000000     0.283320000000     0.149680000000    -0.348415   
O197     O      0.827710000000     0.322530000000     0.289990000000    -0.361401   
O198     O      0.790330000000     0.283020000000     0.326640000000    -0.349146   
O199     O      0.825540000000     0.145330000000     0.186380000000    -0.354299   
O200     O      0.789510000000     0.186080000000     0.149730000000    -0.348101   
O201     O      0.884130000000     0.178820000000     0.236550000000    -0.340203   
O202     O      0.814670000000     0.090510000000     0.239240000000    -0.51297    
O203     O      0.883620000000     0.289330000000     0.237580000000    -0.513764   
O204     O      0.816250000000     0.379640000000     0.238680000000    -0.326128   
O205     O      0.811500000000     0.234770000000     0.269400000000    -0.469546   
O206     O      0.811200000000     0.234690000000     0.207220000000    -0.61176    
O207     O      0.656490000000     0.145430000000     0.186400000000    -0.359012   
O208     O      0.692530000000     0.186190000000     0.149760000000    -0.348289   
O209     O      0.654540000000     0.322500000000     0.290000000000    -0.365454   
O210     O      0.691960000000     0.283070000000     0.326660000000    -0.349715   
O211     O      0.656250000000     0.324140000000     0.186270000000    -0.354667   
O212     O      0.692400000000     0.283440000000     0.149650000000    -0.348261   
O213     O      0.654130000000     0.147890000000     0.290100000000    -0.361284   
O214     O      0.691600000000     0.187370000000     0.326720000000    -0.349289   
O215     O      0.598570000000     0.180540000000     0.237380000000    -0.513827   
O216     O      0.665970000000     0.090290000000     0.239060000000    -0.325997   
O217     O      0.598040000000     0.291020000000     0.236750000000    -0.340069   
O218     O      0.667480000000     0.379410000000     0.238870000000    -0.512839   
O219     O      0.670980000000     0.235140000000     0.207220000000    -0.611932   
O220     O      0.670690000000     0.235250000000     0.269400000000    -0.46968    
O221     O      0.740840000000     0.163270000000     0.204890000000    -0.474533   
O222     O      0.741320000000     0.306280000000     0.271100000000    -0.624368   
O223     O      0.740860000000     0.163710000000     0.271230000000    -0.624481   
O224     O      0.741340000000     0.306620000000     0.204780000000    -0.474959   
O225     O      0.828580000000     0.821470000000     0.290060000000    -0.36573    
O226     O      0.789120000000     0.784020000000     0.326690000000    -0.349798   
O227     O      0.651950000000     0.819920000000     0.186350000000    -0.358948   
O228     O      0.692670000000     0.783820000000     0.149710000000    -0.34837    
O229     O      0.653560000000     0.821520000000     0.290040000000    -0.361315   
O230     O      0.693110000000     0.784120000000     0.326670000000    -0.34922    
O231     O      0.830340000000     0.819760000000     0.186320000000    -0.354568   
O232     O      0.789620000000     0.783670000000     0.149680000000    -0.348128   
O233     O      0.797220000000     0.877960000000     0.236810000000    -0.340445   
O234     O      0.885580000000     0.808500000000     0.238980000000    -0.512968   
O235     O      0.686680000000     0.877440000000     0.237640000000    -0.51363    
O236     O      0.596370000000     0.810050000000     0.238790000000    -0.325823   
O237     O      0.741330000000     0.805310000000     0.269410000000    -0.469789   
O238     O      0.741320000000     0.805070000000     0.207250000000    -0.611674   
O239     O      0.830630000000     0.650470000000     0.186250000000    -0.359089   
O240     O      0.789810000000     0.686510000000     0.149640000000    -0.34855    
O241     O      0.654020000000     0.647940000000     0.289940000000    -0.365352   
O242     O      0.693360000000     0.685450000000     0.326620000000    -0.349547   
O243     O      0.651460000000     0.650620000000     0.186220000000    -0.354517   
O244     O      0.692280000000     0.686660000000     0.149610000000    -0.34829    
O245     O      0.828200000000     0.647890000000     0.289940000000    -0.361164   
O246     O      0.788780000000     0.685350000000     0.326600000000    -0.349173   
O247     O      0.795550000000     0.592440000000     0.237160000000    -0.513719   
O248     O      0.885800000000     0.659820000000     0.238900000000    -0.325959   
O249     O      0.684970000000     0.591930000000     0.236340000000    -0.340754   
O250     O      0.596620000000     0.661350000000     0.239090000000    -0.512786   
O251     O      0.740870000000     0.664870000000     0.207120000000    -0.611605   
O252     O      0.740850000000     0.664540000000     0.269300000000    -0.469503   
O253     O      0.812790000000     0.734740000000     0.204800000000    -0.474802   
O254     O      0.669790000000     0.735110000000     0.271130000000    -0.624344   
O255     O      0.812390000000     0.734650000000     0.271130000000    -0.624357   
O256     O      0.669400000000     0.735240000000     0.204800000000    -0.474826   
O257     O      0.079330000000     0.895490000000     0.938050000000    -0.372702   
O258     O      0.902790000000     0.074560000000     0.938190000000    -0.372368   
O259     O      0.939880000000     0.933420000000     0.900570000000    -0.373014   
O260     O      0.041870000000     0.036910000000     0.900570000000    -0.372706   
O261     O      0.079360000000     0.074510000000     0.938120000000    -0.372474   
O262     O      0.902240000000     0.895980000000     0.938130000000    -0.372468   
O263     O      0.940270000000     0.036990000000     0.900610000000    -0.372639   
O264     O      0.041800000000     0.933070000000     0.900510000000    -0.372873   
O265     O      0.991070000000     0.048050000000     0.956720000000    -0.506559   
O266     O      0.991020000000     0.921920000000     0.956660000000    -0.506623   
O267     O      0.927830000000     0.985050000000     0.956650000000    -0.652872   
O268     O      0.054320000000     0.985000000000     0.956570000000    -0.652851   
O269     O      0.901720000000     0.073280000000     0.538340000000    -0.373609   
O270     O      0.080580000000     0.896600000000     0.538170000000    -0.373235   
O271     O      0.852360000000     0.947400000000     0.489100000000    -0.379549   
O272     O      0.028800000000     0.123730000000     0.987960000000    -0.380907   
O273     O      0.129810000000     0.022630000000     0.988830000000    -0.380954   
O274     O      0.953360000000     0.846270000000     0.487710000000    -0.37946    
O275     O      0.939890000000     0.933480000000     0.575840000000    -0.373472   
O276     O      0.043190000000     0.035560000000     0.575820000000    -0.373111   
O277     O      0.902010000000     0.896290000000     0.538280000000    -0.373376   
O278     O      0.080560000000     0.073270000000     0.538270000000    -0.373312   
O279     O      0.852380000000     0.022730000000     0.988980000000    -0.381035   
O280     O      0.028700000000     0.846250000000     0.487800000000    -0.379612   
O281     O      0.129810000000     0.947290000000     0.488770000000    -0.379488   
O282     O      0.953450000000     0.123740000000     0.988020000000    -0.381068   
O283     O      0.938950000000     0.035400000000     0.575880000000    -0.37326    
O284     O      0.043370000000     0.934430000000     0.575750000000    -0.372807   
O285     O      0.054110000000     0.984940000000     0.519610000000    -0.508294   
O286     O      0.928070000000     0.984980000000     0.519710000000    -0.508435   
O287     O      0.991120000000     0.921750000000     0.519730000000    -0.655069   
O288     O      0.991130000000     0.048190000000     0.519840000000    -0.654823   
O289     O      0.028810000000     0.346260000000     0.488610000000    -0.379498   
O290     O      0.852360000000     0.522600000000     0.987440000000    -0.381113   
O291     O      0.902470000000     0.395900000000     0.538260000000    -0.373901   
O292     O      0.902030000000     0.396220000000     0.938100000000    -0.372111   
O293     O      0.939400000000     0.433910000000     0.900540000000    -0.372712   
O294     O      0.939880000000     0.433600000000     0.575800000000    -0.373304   
O295     O      0.852380000000     0.447270000000     0.987350000000    -0.380924   
O296     O      0.953460000000     0.346250000000     0.988670000000    -0.381005   
O297     O      0.928040000000     0.484930000000     0.956650000000    -0.506356   
O298     O      0.991150000000     0.421900000000     0.519670000000    -0.508294   
O299     O      0.927900000000     0.485020000000     0.519720000000    -0.654762   
O300     O      0.991090000000     0.421780000000     0.956580000000    -0.653626   
O301     O      0.953350000000     0.623720000000     0.988360000000    -0.380999   
O302     O      0.129830000000     0.447360000000     0.487180000000    -0.379522   
O303     O      0.940730000000     0.537370000000     0.575720000000    -0.372758   
O304     O      0.939060000000     0.535600000000     0.900480000000    -0.372717   
O305     O      0.042750000000     0.433970000000     0.900470000000    -0.372773   
O306     O      0.042350000000     0.433480000000     0.575730000000    -0.373005   
O307     O      0.079830000000     0.574200000000     0.538100000000    -0.373693   
O308     O      0.080090000000     0.573720000000     0.937960000000    -0.372381   
O309     O      0.042470000000     0.536520000000     0.575680000000    -0.372763   
O310     O      0.042700000000     0.535980000000     0.900430000000    -0.372792   
O311     O      0.902740000000     0.574460000000     0.538160000000    -0.373901   
O312     O      0.079840000000     0.395890000000     0.538170000000    -0.373769   
O313     O      0.080120000000     0.396230000000     0.938010000000    -0.372073   
O314     O      0.901550000000     0.573190000000     0.938030000000    -0.371996   
O315     O      0.028700000000     0.623740000000     0.488460000000    -0.37946    
O316     O      0.129810000000     0.522700000000     0.487140000000    -0.379441   
O317     O      0.054160000000     0.484980000000     0.956590000000    -0.506397   
O318     O      0.991110000000     0.548100000000     0.519580000000    -0.508202   
O319     O      0.054330000000     0.485030000000     0.519610000000    -0.654741   
O320     O      0.991040000000     0.548180000000     0.956500000000    -0.65353    
O321     O      0.352380000000     0.947300000000     0.488790000000    -0.379482   
O322     O      0.528730000000     0.123750000000     0.988020000000    -0.381095   
O323     O      0.401610000000     0.073260000000     0.538270000000    -0.373425   
O324     O      0.402830000000     0.074520000000     0.938120000000    -0.372426   
O325     O      0.440320000000     0.036920000000     0.900560000000    -0.372502   
O326     O      0.438940000000     0.035520000000     0.575820000000    -0.373021   
O327     O      0.453380000000     0.123740000000     0.987970000000    -0.381073   
O328     O      0.352370000000     0.022630000000     0.988830000000    -0.380989   
O329     O      0.491110000000     0.048060000000     0.956730000000    -0.506527   
O330     O      0.428070000000     0.984950000000     0.519620000000    -0.508394   
O331     O      0.491050000000     0.048200000000     0.519840000000    -0.654937   
O332     O      0.427860000000     0.985010000000     0.956580000000    -0.652841   
O333     O      0.629800000000     0.022740000000     0.989000000000    -0.380934   
O334     O      0.453480000000     0.846250000000     0.487810000000    -0.379694   
O335     O      0.543180000000     0.035450000000     0.575890000000    -0.373106   
O336     O      0.541930000000     0.036990000000     0.900630000000    -0.372423   
O337     O      0.440370000000     0.933090000000     0.900520000000    -0.372662   
O338     O      0.438850000000     0.934400000000     0.575760000000    -0.372766   
O339     O      0.580180000000     0.896310000000     0.538290000000    -0.37341    
O340     O      0.579930000000     0.895970000000     0.938150000000    -0.372496   
O341     O      0.542330000000     0.933530000000     0.575850000000    -0.373129   
O342     O      0.542280000000     0.933410000000     0.900590000000    -0.372566   
O343     O      0.580450000000     0.073300000000     0.538350000000    -0.373422   
O344     O      0.401610000000     0.896600000000     0.538190000000    -0.373366   
O345     O      0.402830000000     0.895510000000     0.938060000000    -0.372654   
O346     O      0.579410000000     0.074560000000     0.938210000000    -0.372325   
O347     O      0.629820000000     0.947400000000     0.489100000000    -0.379392   
O348     O      0.528830000000     0.846270000000     0.487720000000    -0.379495   
O349     O      0.491150000000     0.921920000000     0.956670000000    -0.506541   
O350     O      0.554110000000     0.984990000000     0.519720000000    -0.508485   
O351     O      0.491060000000     0.921750000000     0.519740000000    -0.655082   
O352     O      0.554350000000     0.985060000000     0.956660000000    -0.65283    
O353     O      0.352380000000     0.522710000000     0.487120000000    -0.379399   
O354     O      0.528730000000     0.346260000000     0.988670000000    -0.381078   
O355     O      0.402060000000     0.396240000000     0.938030000000    -0.372287   
O356     O      0.402350000000     0.395900000000     0.538170000000    -0.373754   
O357     O      0.439860000000     0.433480000000     0.575730000000    -0.373009   
O358     O      0.439420000000     0.433960000000     0.900480000000    -0.373029   
O359     O      0.453380000000     0.346270000000     0.988620000000    -0.381004   
O360     O      0.352370000000     0.447380000000     0.987180000000    -0.38103    
O361     O      0.491040000000     0.421910000000     0.519680000000    -0.508165   
O362     O      0.428030000000     0.484990000000     0.956580000000    -0.506322   
O363     O      0.491100000000     0.421790000000     0.956570000000    -0.653581   
O364     O      0.427860000000     0.485050000000     0.519610000000    -0.655015   
O365     O      0.629810000000     0.447270000000     0.987340000000    -0.380965   
O366     O      0.453490000000     0.623740000000     0.488460000000    -0.37959    
O367     O      0.542770000000     0.433890000000     0.900520000000    -0.37292    
O368     O      0.542360000000     0.433650000000     0.575800000000    -0.373272   
O369     O      0.439680000000     0.536500000000     0.575670000000    -0.372904   
O370     O      0.439500000000     0.535990000000     0.900410000000    -0.373041   
O371     O      0.580650000000     0.573170000000     0.938010000000    -0.372135   
O372     O      0.579440000000     0.574480000000     0.538150000000    -0.373859   
O373     O      0.543150000000     0.535590000000     0.900460000000    -0.373085   
O374     O      0.541420000000     0.537420000000     0.575710000000    -0.372811   
O375     O      0.580140000000     0.396210000000     0.938090000000    -0.371942   
O376     O      0.402120000000     0.573730000000     0.937950000000    -0.372274   
O377     O      0.402350000000     0.574200000000     0.538090000000    -0.373681   
O378     O      0.579730000000     0.395920000000     0.538250000000    -0.373939   
O379     O      0.629830000000     0.522600000000     0.487430000000    -0.379721   
O380     O      0.528840000000     0.623730000000     0.488340000000    -0.379566   
O381     O      0.491080000000     0.548100000000     0.519570000000    -0.508178   
O382     O      0.554150000000     0.484940000000     0.956640000000    -0.506302   
O383     O      0.491150000000     0.548190000000     0.956490000000    -0.653391   
O384     O      0.554290000000     0.485030000000     0.519710000000    -0.654819   
O385     O      0.154470000000     0.322540000000     0.789900000000    -0.361447   
O386     O      0.191930000000     0.283130000000     0.826570000000    -0.34887    
O387     O      0.156480000000     0.145470000000     0.686340000000    -0.359736   
O388     O      0.192560000000     0.186190000000     0.649700000000    -0.348792   
O389     O      0.154060000000     0.147890000000     0.790030000000    -0.359902   
O390     O      0.191570000000     0.187330000000     0.826660000000    -0.348742   
O391     O      0.156120000000     0.324030000000     0.686240000000    -0.362176   
O392     O      0.192400000000     0.283410000000     0.649640000000    -0.349204   
O393     O      0.098280000000     0.289820000000     0.737420000000    -0.335784   
O394     O      0.167390000000     0.379410000000     0.738690000000    -0.515241   
O395     O      0.098570000000     0.180870000000     0.737380000000    -0.512229   
O396     O      0.165740000000     0.090350000000     0.738990000000    -0.32714    
O397     O      0.170710000000     0.235280000000     0.769360000000    -0.460416   
O398     O      0.170990000000     0.235170000000     0.707150000000    -0.610217   
O399     O      0.326140000000     0.323940000000     0.686240000000    -0.359183   
O400     O      0.289930000000     0.283270000000     0.649630000000    -0.348768   
O401     O      0.327960000000     0.147840000000     0.790060000000    -0.365278   
O402     O      0.290480000000     0.187260000000     0.826700000000    -0.3498     
O403     O      0.325490000000     0.145300000000     0.686320000000    -0.354397   
O404     O      0.289470000000     0.186070000000     0.649680000000    -0.348552   
O405     O      0.327760000000     0.322480000000     0.789940000000    -0.361574   
O406     O      0.290360000000     0.283000000000     0.826600000000    -0.349264   
O407     O      0.383660000000     0.289190000000     0.737550000000    -0.513772   
O408     O      0.316350000000     0.379560000000     0.738630000000    -0.326661   
O409     O      0.384110000000     0.178660000000     0.736510000000    -0.339898   
O410     O      0.314550000000     0.090440000000     0.739200000000    -0.512927   
O411     O      0.311210000000     0.234620000000     0.707180000000    -0.611816   
O412     O      0.311510000000     0.234690000000     0.769360000000    -0.46954    
O413     O      0.241400000000     0.306580000000     0.704750000000    -0.475163   
O414     O      0.240820000000     0.163690000000     0.771180000000    -0.624607   
O415     O      0.241370000000     0.306240000000     0.771060000000    -0.6243     
O416     O      0.240800000000     0.163250000000     0.704850000000    -0.474964   
O417     O      0.154160000000     0.822100000000     0.790000000000    -0.365449   
O418     O      0.191670000000     0.782710000000     0.826640000000    -0.349709   
O419     O      0.156130000000     0.646000000000     0.686180000000    -0.35915    
O420     O      0.192310000000     0.686720000000     0.649590000000    -0.34892    
O421     O      0.154460000000     0.647420000000     0.789880000000    -0.361396   
O422     O      0.191820000000     0.686940000000     0.826550000000    -0.349129   
O423     O      0.156690000000     0.824630000000     0.686270000000    -0.354381   
O424     O      0.192730000000     0.783860000000     0.649640000000    -0.348656   
O425     O      0.098050000000     0.791180000000     0.736450000000    -0.340605   
O426     O      0.167500000000     0.879480000000     0.739150000000    -0.512843   
O427     O      0.098560000000     0.680640000000     0.737490000000    -0.513843   
O428     O      0.165950000000     0.590350000000     0.738580000000    -0.326441   
O429     O      0.170690000000     0.735220000000     0.769320000000    -0.469559   
O430     O      0.170970000000     0.735300000000     0.707140000000    -0.611933   
O431     O      0.325640000000     0.824540000000     0.686290000000    -0.35908    
O432     O      0.289590000000     0.783760000000     0.649670000000    -0.348839   
O433     O      0.327680000000     0.647470000000     0.789890000000    -0.365474   
O434     O      0.290270000000     0.686900000000     0.826570000000    -0.349612   
O435     O      0.325900000000     0.645910000000     0.686160000000    -0.354629   
O436     O      0.289730000000     0.686620000000     0.649560000000    -0.348735   
O437     O      0.328070000000     0.822150000000     0.789990000000    -0.361323   
O438     O      0.290610000000     0.782670000000     0.826620000000    -0.349265   
O439     O      0.383610000000     0.789490000000     0.737280000000    -0.513441   
O440     O      0.316210000000     0.879720000000     0.738960000000    -0.326257   
O441     O      0.384150000000     0.678980000000     0.736650000000    -0.340313   
O442     O      0.314720000000     0.590580000000     0.738770000000    -0.51282    
O443     O      0.311210000000     0.734860000000     0.707140000000    -0.611774   
O444     O      0.311490000000     0.734750000000     0.769310000000    -0.469637   
O445     O      0.241340000000     0.806730000000     0.704810000000    -0.474651   
O446     O      0.240870000000     0.663720000000     0.771020000000    -0.624337   
O447     O      0.241310000000     0.806280000000     0.771140000000    -0.624162   
O448     O      0.240850000000     0.663360000000     0.704700000000    -0.474919   
O449     O      0.827990000000     0.147920000000     0.790110000000    -0.365374   
O450     O      0.790480000000     0.187320000000     0.826740000000    -0.349757   
O451     O      0.826100000000     0.324030000000     0.686290000000    -0.359188   
O452     O      0.789930000000     0.283320000000     0.649680000000    -0.348761   
O453     O      0.827710000000     0.322530000000     0.789990000000    -0.361341   
O454     O      0.790330000000     0.283020000000     0.826640000000    -0.349159   
O455     O      0.825540000000     0.145330000000     0.686380000000    -0.354309   
O456     O      0.789510000000     0.186080000000     0.649730000000    -0.348443   
O457     O      0.884130000000     0.178820000000     0.736550000000    -0.340149   
O458     O      0.814660000000     0.090510000000     0.739240000000    -0.51295    
O459     O      0.883620000000     0.289330000000     0.737580000000    -0.513844   
O460     O      0.816250000000     0.379640000000     0.738680000000    -0.326101   
O461     O      0.811500000000     0.234770000000     0.769400000000    -0.469514   
O462     O      0.811200000000     0.234690000000     0.707220000000    -0.611709   
O463     O      0.656490000000     0.145430000000     0.686400000000    -0.359028   
O464     O      0.692530000000     0.186190000000     0.649760000000    -0.348639   
O465     O      0.654540000000     0.322500000000     0.790000000000    -0.365404   
O466     O      0.691960000000     0.283070000000     0.826660000000    -0.349679   
O467     O      0.656250000000     0.324140000000     0.686270000000    -0.354679   
O468     O      0.692400000000     0.283440000000     0.649650000000    -0.348605   
O469     O      0.654130000000     0.147890000000     0.790100000000    -0.361205   
O470     O      0.691610000000     0.187370000000     0.826720000000    -0.349268   
O471     O      0.598570000000     0.180540000000     0.737380000000    -0.51354    
O472     O      0.665970000000     0.090290000000     0.739060000000    -0.325942   
O473     O      0.598040000000     0.291020000000     0.736750000000    -0.34006    
O474     O      0.667480000000     0.379420000000     0.738870000000    -0.512952   
O475     O      0.670980000000     0.235140000000     0.707220000000    -0.611879   
O476     O      0.670690000000     0.235250000000     0.769400000000    -0.469649   
O477     O      0.740840000000     0.163270000000     0.704890000000    -0.474532   
O478     O      0.741320000000     0.306280000000     0.771100000000    -0.624363   
O479     O      0.740860000000     0.163710000000     0.771230000000    -0.624471   
O480     O      0.741340000000     0.306620000000     0.704780000000    -0.474967   
O481     O      0.828580000000     0.821460000000     0.790050000000    -0.365632   
O482     O      0.789120000000     0.784020000000     0.826690000000    -0.349769   
O483     O      0.651950000000     0.819920000000     0.686340000000    -0.359056   
O484     O      0.692670000000     0.783820000000     0.649710000000    -0.348713   
O485     O      0.653560000000     0.821520000000     0.790050000000    -0.361326   
O486     O      0.693110000000     0.784120000000     0.826670000000    -0.349347   
O487     O      0.830340000000     0.819760000000     0.686320000000    -0.354578   
O488     O      0.789620000000     0.783670000000     0.649680000000    -0.348522   
O489     O      0.797220000000     0.877960000000     0.736810000000    -0.340438   
O490     O      0.885580000000     0.808510000000     0.738980000000    -0.512984   
O491     O      0.686680000000     0.877440000000     0.737640000000    -0.513495   
O492     O      0.596370000000     0.810050000000     0.738790000000    -0.325776   
O493     O      0.741330000000     0.805310000000     0.769410000000    -0.46975    
O494     O      0.741320000000     0.805060000000     0.707250000000    -0.611687   
O495     O      0.830620000000     0.650460000000     0.686250000000    -0.3591     
O496     O      0.789810000000     0.686520000000     0.649640000000    -0.348802   
O497     O      0.654020000000     0.647940000000     0.789950000000    -0.365399   
O498     O      0.693360000000     0.685450000000     0.826620000000    -0.349685   
O499     O      0.651460000000     0.650620000000     0.686220000000    -0.35451    
O500     O      0.692280000000     0.686660000000     0.649610000000    -0.348698   
O501     O      0.828200000000     0.647890000000     0.789940000000    -0.361112   
O502     O      0.788780000000     0.685350000000     0.826600000000    -0.349195   
O503     O      0.795550000000     0.592440000000     0.737160000000    -0.513681   
O504     O      0.885800000000     0.659820000000     0.738900000000    -0.325915   
O505     O      0.684960000000     0.591930000000     0.736340000000    -0.340694   
O506     O      0.596620000000     0.661350000000     0.739080000000    -0.512781   
O507     O      0.740870000000     0.664860000000     0.707120000000    -0.611631   
O508     O      0.740850000000     0.664540000000     0.769290000000    -0.469527   
O509     O      0.812790000000     0.734740000000     0.704800000000    -0.474822   
O510     O      0.669790000000     0.735110000000     0.771130000000    -0.624337   
O511     O      0.812390000000     0.734650000000     0.771130000000    -0.624354   
O512     O      0.669400000000     0.735240000000     0.704800000000    -0.474826   
Zr1      Zr     0.991030000000     0.985010000000     0.425450000000     1.42223    
Zr2      Zr     0.928460000000     0.047680000000     0.488260000000     1.43666    
Zr3      Zr     0.053730000000     0.922300000000     0.988120000000     1.41699    
Zr4      Zr     0.928400000000     0.922350000000     0.988200000000     1.41667    
Zr5      Zr     0.053750000000     0.047640000000     0.488190000000     1.43677    
Zr6      Zr     0.991140000000     0.984910000000     0.050930000000     1.42502    
Zr7      Zr     0.928460000000     0.422310000000     0.488170000000     1.43643    
Zr8      Zr     0.928410000000     0.547630000000     0.488100000000     1.43663    
Zr9      Zr     0.053770000000     0.422330000000     0.988100000000     1.41686    
Zr10     Zr     0.991170000000     0.485050000000     0.050850000000     1.42372    
Zr11     Zr     0.991070000000     0.484950000000     0.425380000000     1.42436    
Zr12     Zr     0.053740000000     0.547690000000     0.988040000000     1.41687    
Zr13     Zr     0.428430000000     0.047650000000     0.488200000000     1.43666    
Zr14     Zr     0.553720000000     0.047680000000     0.488270000000     1.43675    
Zr15     Zr     0.428450000000     0.922310000000     0.988130000000     1.41686    
Zr16     Zr     0.491030000000     0.984920000000     0.050930000000     1.42552    
Zr17     Zr     0.491140000000     0.985020000000     0.425470000000     1.42278    
Zr18     Zr     0.553780000000     0.922350000000     0.988210000000     1.41664    
Zr19     Zr     0.428420000000     0.422340000000     0.488100000000     1.43656    
Zr20     Zr     0.553730000000     0.422320000000     0.488170000000     1.43637    
Zr21     Zr     0.428460000000     0.547690000000     0.988030000000     1.41689    
Zr22     Zr     0.491120000000     0.484950000000     0.425370000000     1.42404    
Zr23     Zr     0.491020000000     0.485060000000     0.050850000000     1.42383    
Zr24     Zr     0.553780000000     0.547630000000     0.988090000000     1.41672    
Zr25     Zr     0.177990000000     0.300530000000     0.238070000000     1.29777    
Zr26     Zr     0.177460000000     0.169860000000     0.238170000000     1.30263    
Zr27     Zr     0.304740000000     0.300030000000     0.238090000000     1.29974    
Zr28     Zr     0.304200000000     0.169320000000     0.238160000000     1.29926    
Zr29     Zr     0.241100000000     0.235020000000     0.296960000000     1.2635     
Zr30     Zr     0.241100000000     0.234880000000     0.179350000000     1.26067    
Zr31     Zr     0.177940000000     0.800600000000     0.238120000000     1.2991     
Zr32     Zr     0.177500000000     0.669880000000     0.238040000000     1.29984    
Zr33     Zr     0.304680000000     0.800180000000     0.238130000000     1.30003    
Zr34     Zr     0.304250000000     0.669460000000     0.238030000000     1.29913    
Zr35     Zr     0.241090000000     0.734950000000     0.296930000000     1.26311    
Zr36     Zr     0.241090000000     0.735090000000     0.179320000000     1.26109    
Zr37     Zr     0.804230000000     0.169390000000     0.238210000000     1.29912    
Zr38     Zr     0.804690000000     0.300100000000     0.238130000000     1.29981    
Zr39     Zr     0.677500000000     0.169830000000     0.238220000000     1.29999    
Zr40     Zr     0.677940000000     0.300540000000     0.238110000000     1.29922    
Zr41     Zr     0.741090000000     0.235040000000     0.296990000000     1.26362    
Zr42     Zr     0.741090000000     0.234910000000     0.179380000000     1.26029    
Zr43     Zr     0.806690000000     0.798070000000     0.238170000000     1.2991     
Zr44     Zr     0.675930000000     0.798520000000     0.238180000000     1.30006    
Zr45     Zr     0.806250000000     0.671360000000     0.238080000000     1.29995    
Zr46     Zr     0.675510000000     0.671810000000     0.238070000000     1.29903    
Zr47     Zr     0.741090000000     0.734880000000     0.296960000000     1.26343    
Zr48     Zr     0.741090000000     0.735010000000     0.179350000000     1.26053    
Zr49     Zr     0.991030000000     0.985010000000     0.925450000000     1.42171    
Zr50     Zr     0.928460000000     0.047680000000     0.988250000000     1.41683    
Zr51     Zr     0.053730000000     0.922300000000     0.488120000000     1.43677    
Zr52     Zr     0.928400000000     0.922350000000     0.488200000000     1.43648    
Zr53     Zr     0.053750000000     0.047640000000     0.988190000000     1.41694    
Zr54     Zr     0.991140000000     0.984910000000     0.550930000000     1.42401    
Zr55     Zr     0.928460000000     0.422310000000     0.988170000000     1.41659    
Zr56     Zr     0.928410000000     0.547630000000     0.988100000000     1.41672    
Zr57     Zr     0.053770000000     0.422330000000     0.488100000000     1.43677    
Zr58     Zr     0.991170000000     0.485050000000     0.550850000000     1.42271    
Zr59     Zr     0.991070000000     0.484950000000     0.925390000000     1.42378    
Zr60     Zr     0.053740000000     0.547690000000     0.488040000000     1.43676    
Zr61     Zr     0.428430000000     0.047650000000     0.988200000000     1.41681    
Zr62     Zr     0.553720000000     0.047680000000     0.988270000000     1.41686    
Zr63     Zr     0.428450000000     0.922300000000     0.488130000000     1.43681    
Zr64     Zr     0.491030000000     0.984920000000     0.550930000000     1.42445    
Zr65     Zr     0.491140000000     0.985020000000     0.925460000000     1.42214    
Zr66     Zr     0.553780000000     0.922350000000     0.488210000000     1.43648    
Zr67     Zr     0.428420000000     0.422340000000     0.988100000000     1.41661    
Zr68     Zr     0.553730000000     0.422320000000     0.988170000000     1.41653    
Zr69     Zr     0.428460000000     0.547700000000     0.488030000000     1.4367     
Zr70     Zr     0.491120000000     0.484950000000     0.925370000000     1.42343    
Zr71     Zr     0.491020000000     0.485060000000     0.550850000000     1.42282    
Zr72     Zr     0.553780000000     0.547630000000     0.488090000000     1.43667    
Zr73     Zr     0.177990000000     0.300530000000     0.738080000000     1.29794    
Zr74     Zr     0.177460000000     0.169860000000     0.738170000000     1.30277    
Zr75     Zr     0.304740000000     0.300030000000     0.738090000000     1.29993    
Zr76     Zr     0.304190000000     0.169320000000     0.738160000000     1.29934    
Zr77     Zr     0.241100000000     0.235020000000     0.796960000000     1.26359    
Zr78     Zr     0.241100000000     0.234880000000     0.679350000000     1.26049    
Zr79     Zr     0.177940000000     0.800610000000     0.738120000000     1.29922    
Zr80     Zr     0.177500000000     0.669890000000     0.738050000000     1.29994    
Zr81     Zr     0.304680000000     0.800180000000     0.738130000000     1.3001     
Zr82     Zr     0.304250000000     0.669460000000     0.738030000000     1.29924    
Zr83     Zr     0.241090000000     0.734950000000     0.796920000000     1.26322    
Zr84     Zr     0.241090000000     0.735090000000     0.679320000000     1.26093    
Zr85     Zr     0.804230000000     0.169390000000     0.738210000000     1.29925    
Zr86     Zr     0.804690000000     0.300100000000     0.738130000000     1.29997    
Zr87     Zr     0.677500000000     0.169830000000     0.738220000000     1.30012    
Zr88     Zr     0.677940000000     0.300540000000     0.738110000000     1.29933    
Zr89     Zr     0.741090000000     0.235040000000     0.796990000000     1.26378    
Zr90     Zr     0.741090000000     0.234910000000     0.679380000000     1.26012    
Zr91     Zr     0.806690000000     0.798070000000     0.738170000000     1.29934    
Zr92     Zr     0.675930000000     0.798520000000     0.738180000000     1.30014    
Zr93     Zr     0.806250000000     0.671360000000     0.738080000000     1.30017    
Zr94     Zr     0.675510000000     0.671810000000     0.738070000000     1.29921    
Zr95     Zr     0.741090000000     0.734880000000     0.796960000000     1.26357    
Zr96     Zr     0.741090000000     0.735010000000     0.679350000000     1.26039    


