data_structure

_audit_creation_method RASPA-1.0
_audit_creation_date 2023-5-19
_audit_author_name 'Poobodin Mano'

_cell_length_a    34.027
_cell_length_b    34.0476
_cell_length_c    34.0064
_cell_angle_alpha 90
_cell_angle_beta  90
_cell_angle_gamma 90
_cell_volume      39397.7

_symmetry_cell_setting          triclinic
_symmetry_space_group_name_Hall 'P 1'
_symmetry_space_group_name_H-M  'P 1'
_symmetry_Int_Tables_number     1

_symmetry_equiv_pos_as_xyz 'x,y,z'

loop_
_atom_site_label
_atom_site_type_symbol
_atom_site_fract_x
_atom_site_fract_y
_atom_site_fract_z
_atom_site_charge
C1       C      0.005950000000     0.107300000000     0.107410000000     0.350939   
C2       C      0.007980000000     0.907120000000     0.107490000000     0.350562   
C3       C      0.906830000000     0.008030000000     0.107410000000     0.351078   
C4       C      0.107100000000     0.006360000000     0.107450000000     0.351181   
C5       C      0.005870000000     0.907040000000     0.907080000000     0.350626   
C6       C      0.008150000000     0.107230000000     0.907000000000     0.350495   
C7       C      0.906750000000     0.907130000000     0.006200000000     0.350148   
C8       C      0.107080000000     0.906980000000     0.008350000000     0.350407   
C9       C      0.107220000000     0.107210000000     0.006170000000     0.35037    
C10      C      0.906890000000     0.107350000000     0.008250000000     0.350361   
C11      C      0.906870000000     0.006420000000     0.907030000000     0.350811   
C12      C      0.107140000000     0.007860000000     0.907080000000     0.35101    
C13      C      0.005910000000     0.407120000000     0.407000000000     0.350839   
C14      C      0.008010000000     0.607300000000     0.407080000000     0.350827   
C15      C      0.906830000000     0.506090000000     0.407080000000     0.351236   
C16      C      0.107090000000     0.508310000000     0.407030000000     0.351265   
C17      C      0.005910000000     0.607220000000     0.607490000000     0.350851   
C18      C      0.008110000000     0.407040000000     0.607410000000     0.350694   
C19      C      0.906790000000     0.607260000000     0.508050000000     0.350424   
C20      C      0.107140000000     0.607310000000     0.506500000000     0.350479   
C21      C      0.107180000000     0.407080000000     0.507950000000     0.350568   
C22      C      0.906830000000     0.407030000000     0.506490000000     0.350453   
C23      C      0.906880000000     0.508220000000     0.607460000000     0.351216   
C24      C      0.107140000000     0.506070000000     0.607410000000     0.351232   
C25      C      0.607100000000     0.006260000000     0.407030000000     0.351197   
C26      C      0.406830000000     0.008060000000     0.407080000000     0.351263   
C27      C      0.507810000000     0.907070000000     0.407040000000     0.350941   
C28      C      0.506120000000     0.107250000000     0.407020000000     0.350935   
C29      C      0.406870000000     0.006320000000     0.607450000000     0.351143   
C30      C      0.607140000000     0.008040000000     0.607410000000     0.351096   
C31      C      0.406790000000     0.907080000000     0.508130000000     0.350575   
C32      C      0.406840000000     0.107300000000     0.506390000000     0.350649   
C33      C      0.607180000000     0.107260000000     0.508080000000     0.35065    
C34      C      0.607130000000     0.907040000000     0.506380000000     0.350649   
C35      C      0.506110000000     0.907090000000     0.607460000000     0.350847   
C36      C      0.507900000000     0.107270000000     0.607440000000     0.350943   
C37      C      0.406890000000     0.406990000000     0.006150000000     0.35051    
C38      C      0.607230000000     0.407130000000     0.008300000000     0.350428   
C39      C      0.506310000000     0.407080000000     0.907020000000     0.35081    
C40      C      0.507790000000     0.407060000000     0.107440000000     0.350811   
C41      C      0.607080000000     0.607350000000     0.006210000000     0.350504   
C42      C      0.406740000000     0.607200000000     0.008290000000     0.350497   
C43      C      0.607140000000     0.508340000000     0.907080000000     0.351163   
C44      C      0.607100000000     0.506130000000     0.107450000000     0.351247   
C45      C      0.406830000000     0.508190000000     0.107400000000     0.351354   
C46      C      0.406880000000     0.506030000000     0.907030000000     0.35119    
C47      C      0.507710000000     0.607280000000     0.907050000000     0.350868   
C48      C      0.506130000000     0.607260000000     0.107460000000     0.3508     
C49      C      0.505950000000     0.138100000000     0.376160000000    -0.106849   
C50      C      0.506000000000     0.178140000000     0.386440000000     0.0244082  
C51      C      0.506100000000     0.207150000000     0.357400000000    -0.070679   
C52      C      0.506200000000     0.196880000000     0.317380000000     0.0304233  
C53      C      0.506060000000     0.156920000000     0.307050000000    -0.0707067  
C54      C      0.505920000000     0.127870000000     0.336060000000     0.0242914  
C55      C      0.506530000000     0.227740000000     0.286530000000    -0.000788631
C56      C      0.483140000000     0.261550000000     0.290450000000    -0.0375902  
C57      C      0.483520000000     0.290620000000     0.261460000000    -0.0376617  
C58      C      0.507290000000     0.286540000000     0.227900000000    -0.000768781
C59      C      0.530670000000     0.252730000000     0.223980000000    -0.0376014  
C60      C      0.530300000000     0.223660000000     0.252970000000    -0.0376464  
C61      C      0.507630000000     0.317410000000     0.197050000000     0.0304353  
C62      C      0.507780000000     0.357370000000     0.207400000000    -0.0706724  
C63      C      0.507940000000     0.386420000000     0.178390000000     0.0243903  
C64      C      0.507930000000     0.376210000000     0.138290000000    -0.106869   
C65      C      0.507860000000     0.336170000000     0.128000000000     0.0243782  
C66      C      0.507730000000     0.307150000000     0.157030000000    -0.0707011  
C67      C      0.507960000000     0.876220000000     0.376190000000    -0.106741   
C68      C      0.507990000000     0.886430000000     0.336090000000     0.0244975  
C69      C      0.507840000000     0.857380000000     0.307080000000    -0.07053    
C70      C      0.507690000000     0.817420000000     0.317420000000     0.0305123  
C71      C      0.507770000000     0.807160000000     0.357440000000    -0.0706199  
C72      C      0.507900000000     0.836180000000     0.386480000000     0.0244151  
C73      C      0.507340000000     0.786550000000     0.286580000000    -0.000703174
C74      C      0.483580000000     0.790630000000     0.253010000000    -0.0375335  
C75      C      0.483200000000     0.761570000000     0.224020000000    -0.0375341  
C76      C      0.506580000000     0.727750000000     0.227940000000    -0.000762113
C77      C      0.530340000000     0.723670000000     0.261510000000    -0.037593   
C78      C      0.530720000000     0.752740000000     0.290500000000    -0.0375408  
C79      C      0.506240000000     0.696890000000     0.197090000000     0.0304612  
C80      C      0.506160000000     0.707160000000     0.157070000000    -0.070721   
C81      C      0.506040000000     0.678140000000     0.128030000000     0.024367   
C82      C      0.505980000000     0.638100000000     0.138320000000    -0.106852   
C83      C      0.505940000000     0.627880000000     0.178420000000     0.0243716  
C84      C      0.506100000000     0.656930000000     0.207430000000    -0.0706567  
C85      C      0.505930000000     0.876250000000     0.638320000000    -0.10672    
C86      C      0.505860000000     0.886460000000     0.678420000000     0.0244568  
C87      C      0.506000000000     0.857420000000     0.707440000000    -0.0706566  
C88      C      0.506160000000     0.817460000000     0.697100000000     0.0305277  
C89      C      0.506100000000     0.807190000000     0.657080000000    -0.0706552  
C90      C      0.506000000000     0.836200000000     0.628040000000     0.0243941  
C91      C      0.506480000000     0.786600000000     0.727950000000    -0.000757074
C92      C      0.530210000000     0.790690000000     0.761540000000    -0.0374787  
C93      C      0.530570000000     0.761620000000     0.790530000000    -0.0375498  
C94      C      0.507210000000     0.727800000000     0.786590000000    -0.000644651
C95      C      0.483480000000     0.723710000000     0.753000000000    -0.0376036  
C96      C      0.483110000000     0.752780000000     0.724020000000    -0.0374773  
C97      C      0.507540000000     0.696930000000     0.817430000000     0.0304882  
C98      C      0.507600000000     0.707190000000     0.857460000000    -0.0705182  
C99      C      0.507730000000     0.678170000000     0.886490000000     0.024515   
C100     C      0.507830000000     0.638130000000     0.876200000000    -0.106696   
C101     C      0.507890000000     0.627920000000     0.836090000000     0.0243861  
C102     C      0.507730000000     0.656970000000     0.807090000000    -0.0706055  
C103     C      0.508090000000     0.138120000000     0.638290000000    -0.106912   
C104     C      0.508020000000     0.178160000000     0.628010000000     0.0244958  
C105     C      0.507930000000     0.207180000000     0.657050000000    -0.0707249  
C106     C      0.507880000000     0.196910000000     0.697060000000     0.0306066  
C107     C      0.508040000000     0.156950000000     0.707410000000    -0.0707214  
C108     C      0.508160000000     0.127910000000     0.678390000000     0.0245516  
C109     C      0.507560000000     0.227780000000     0.727910000000    -0.00077134 
C110     C      0.530920000000     0.261600000000     0.723980000000    -0.0374635  
C111     C      0.530560000000     0.290670000000     0.752970000000    -0.0376547  
C112     C      0.506830000000     0.286570000000     0.786550000000    -0.000646045
C113     C      0.483470000000     0.252750000000     0.790490000000    -0.037554   
C114     C      0.483830000000     0.223690000000     0.761500000000    -0.0374467  
C115     C      0.506500000000     0.317440000000     0.817400000000     0.030481   
C116     C      0.506310000000     0.357400000000     0.807060000000    -0.0706136  
C117     C      0.506150000000     0.386450000000     0.836070000000     0.0244343  
C118     C      0.506200000000     0.376240000000     0.876170000000    -0.106766   
C119     C      0.506300000000     0.336200000000     0.886460000000     0.0244887  
C120     C      0.506440000000     0.307180000000     0.857420000000    -0.0705612  
C121     C      0.875990000000     0.376180000000     0.506360000000    -0.106518   
C122     C      0.835900000000     0.386390000000     0.506300000000     0.0242646  
C123     C      0.806900000000     0.357350000000     0.506470000000    -0.0705664  
C124     C      0.817220000000     0.317380000000     0.506650000000     0.0304033  
C125     C      0.857220000000     0.307110000000     0.506590000000    -0.0704894  
C126     C      0.886250000000     0.336130000000     0.506460000000     0.0243068  
C127     C      0.786360000000     0.286510000000     0.506980000000    -0.00068002 
C128     C      0.752750000000     0.290650000000     0.530660000000    -0.0376035  
C129     C      0.723750000000     0.261600000000     0.531010000000    -0.037536   
C130     C      0.727700000000     0.227740000000     0.507690000000    -0.000710004
C131     C      0.761310000000     0.223590000000     0.484020000000    -0.0375699  
C132     C      0.790310000000     0.252640000000     0.483660000000    -0.0375478  
C133     C      0.696830000000     0.196880000000     0.508010000000     0.0304048  
C134     C      0.656840000000     0.207160000000     0.508050000000    -0.0705916  
C135     C      0.627790000000     0.178150000000     0.508160000000     0.0242792  
C136     C      0.638040000000     0.138100000000     0.508240000000    -0.106675   
C137     C      0.678120000000     0.127870000000     0.508310000000     0.0242907  
C138     C      0.707130000000     0.156900000000     0.508180000000    -0.0706024  
C139     C      0.875930000000     0.638110000000     0.508180000000    -0.106401   
C140     C      0.835850000000     0.627880000000     0.508270000000     0.0241699  
C141     C      0.806840000000     0.656920000000     0.508110000000    -0.070517   
C142     C      0.817140000000     0.696880000000     0.507900000000     0.0303617  
C143     C      0.857140000000     0.707170000000     0.507930000000    -0.0705309  
C144     C      0.886180000000     0.678160000000     0.508050000000     0.0242239  
C145     C      0.786280000000     0.727750000000     0.507570000000    -0.000677991
C146     C      0.752660000000     0.723580000000     0.483910000000    -0.0376539  
C147     C      0.723660000000     0.752630000000     0.483540000000    -0.0375458  
C148     C      0.727610000000     0.786520000000     0.506830000000    -0.000710954
C149     C      0.761230000000     0.790680000000     0.530490000000    -0.0375646  
C150     C      0.790240000000     0.761630000000     0.530850000000    -0.0375775  
C151     C      0.696760000000     0.817390000000     0.506490000000     0.0303867  
C152     C      0.656760000000     0.807120000000     0.506460000000    -0.0705027  
C153     C      0.627720000000     0.836130000000     0.506340000000     0.0242024  
C154     C      0.637980000000     0.876180000000     0.506220000000    -0.106443   
C155     C      0.678070000000     0.886400000000     0.506120000000     0.0242603  
C156     C      0.707070000000     0.857360000000     0.506280000000    -0.0704934  
C157     C      0.138040000000     0.376240000000     0.508070000000    -0.10663    
C158     C      0.178120000000     0.386460000000     0.508080000000     0.0242713  
C159     C      0.207130000000     0.357430000000     0.507930000000    -0.0705969  
C160     C      0.196830000000     0.317460000000     0.507800000000     0.0303642  
C161     C      0.156830000000     0.307180000000     0.507900000000    -0.0705534  
C162     C      0.127790000000     0.336180000000     0.508020000000     0.0242229  
C163     C      0.227690000000     0.286590000000     0.507490000000    -0.000680408
C164     C      0.261280000000     0.290710000000     0.483780000000    -0.037611   
C165     C      0.290280000000     0.261660000000     0.483430000000    -0.0375143  
C166     C      0.286360000000     0.227820000000     0.506790000000    -0.000731967
C167     C      0.252770000000     0.223710000000     0.530510000000    -0.0375696  
C168     C      0.223770000000     0.252760000000     0.530850000000    -0.0375951  
C169     C      0.317210000000     0.196950000000     0.506470000000     0.0304071  
C170     C      0.357210000000     0.207220000000     0.506370000000    -0.0705726  
C171     C      0.386250000000     0.178210000000     0.506260000000     0.024247   
C172     C      0.375990000000     0.138160000000     0.506230000000    -0.106599   
C173     C      0.335910000000     0.127940000000     0.506210000000     0.0242661  
C174     C      0.306900000000     0.156980000000     0.506350000000    -0.0706164  
C175     C      0.137980000000     0.638170000000     0.506380000000    -0.106632   
C176     C      0.178060000000     0.627950000000     0.506300000000     0.0242722  
C177     C      0.207070000000     0.656990000000     0.506470000000    -0.0705885  
C178     C      0.196750000000     0.696960000000     0.506670000000     0.0304267  
C179     C      0.156750000000     0.707230000000     0.506630000000    -0.0705496  
C180     C      0.127720000000     0.678210000000     0.506500000000     0.0243576  
C181     C      0.227610000000     0.727830000000     0.507010000000    -0.000624808
C182     C      0.261220000000     0.723680000000     0.530680000000    -0.0376189  
C183     C      0.290220000000     0.752730000000     0.531040000000    -0.03745    
C184     C      0.286270000000     0.786600000000     0.507740000000    -0.000679521
C185     C      0.252650000000     0.790760000000     0.484070000000    -0.0374984  
C186     C      0.223650000000     0.761710000000     0.483710000000    -0.0375602  
C187     C      0.317140000000     0.817460000000     0.508060000000     0.0304433  
C188     C      0.357130000000     0.807180000000     0.508090000000    -0.0705392  
C189     C      0.386180000000     0.836190000000     0.508200000000     0.0242624  
C190     C      0.375930000000     0.876240000000     0.508300000000    -0.106495   
C191     C      0.335850000000     0.886470000000     0.508380000000     0.0243356  
C192     C      0.306840000000     0.857440000000     0.508240000000    -0.0704769  
C193     C      0.875990000000     0.505640000000     0.376230000000    -0.106944   
C194     C      0.886260000000     0.505320000000     0.336140000000     0.0246358  
C195     C      0.857220000000     0.505070000000     0.307110000000    -0.0705563  
C196     C      0.817230000000     0.505100000000     0.317420000000     0.0305598  
C197     C      0.806920000000     0.505310000000     0.357430000000    -0.0706565  
C198     C      0.835920000000     0.505590000000     0.386490000000     0.0245554  
C199     C      0.786390000000     0.505030000000     0.286550000000    -0.000691283
C200     C      0.790390000000     0.528570000000     0.252840000000    -0.0375921  
C201     C      0.761350000000     0.528580000000     0.223820000000    -0.0375659  
C202     C      0.727660000000     0.505050000000     0.227860000000    -0.000776753
C203     C      0.723660000000     0.481490000000     0.261570000000    -0.0374797  
C204     C      0.752700000000     0.481480000000     0.290590000000    -0.0375085  
C205     C      0.696770000000     0.505130000000     0.197040000000     0.0305984  
C206     C      0.707040000000     0.505100000000     0.157020000000    -0.070753   
C207     C      0.678010000000     0.505360000000     0.127990000000     0.0245967  
C208     C      0.637950000000     0.505680000000     0.138290000000    -0.107114   
C209     C      0.627730000000     0.505630000000     0.178400000000     0.0246055  
C210     C      0.656790000000     0.505350000000     0.207400000000    -0.0708248  
C211     C      0.137920000000     0.508770000000     0.376160000000    -0.107116   
C212     C      0.127640000000     0.509040000000     0.336070000000     0.0245246  
C213     C      0.156660000000     0.509290000000     0.307040000000    -0.0708563  
C214     C      0.196650000000     0.509310000000     0.317340000000     0.0305753  
C215     C      0.206990000000     0.509140000000     0.357340000000    -0.0708223  
C216     C      0.177990000000     0.508860000000     0.386410000000     0.0245767  
C217     C      0.227480000000     0.509380000000     0.286460000000    -0.000835509
C218     C      0.223500000000     0.485800000000     0.252770000000    -0.0376278  
C219     C      0.252540000000     0.485770000000     0.223750000000    -0.0376923  
C220     C      0.286220000000     0.509330000000     0.227760000000    -0.000767649
C221     C      0.290200000000     0.532940000000     0.261440000000    -0.0375177  
C222     C      0.261150000000     0.532960000000     0.290460000000    -0.037501   
C223     C      0.317120000000     0.509230000000     0.196950000000     0.0305809  
C224     C      0.306860000000     0.509200000000     0.156930000000    -0.0707645  
C225     C      0.335910000000     0.508930000000     0.127910000000     0.0245984  
C226     C      0.375960000000     0.508650000000     0.138230000000    -0.107086   
C227     C      0.386170000000     0.508750000000     0.178340000000     0.0245395  
C228     C      0.357090000000     0.509050000000     0.207330000000    -0.070762   
C229     C      0.137980000000     0.505610000000     0.638260000000    -0.107163   
C230     C      0.178050000000     0.505580000000     0.628000000000     0.0246356  
C231     C      0.207060000000     0.505300000000     0.657050000000    -0.0708414  
C232     C      0.196740000000     0.505050000000     0.697060000000     0.0305899  
C233     C      0.156750000000     0.505010000000     0.707380000000    -0.070835   
C234     C      0.127720000000     0.505270000000     0.678350000000     0.0246128  
C235     C      0.227580000000     0.504970000000     0.727930000000    -0.000803401
C236     C      0.261280000000     0.481430000000     0.723880000000    -0.0374759  
C237     C      0.290320000000     0.481430000000     0.752900000000    -0.0375264  
C238     C      0.286320000000     0.504960000000     0.786620000000    -0.000792673
C239     C      0.252610000000     0.528480000000     0.790680000000    -0.0376334  
C240     C      0.223570000000     0.528490000000     0.761660000000    -0.0376698  
C241     C      0.317200000000     0.505030000000     0.817450000000     0.0305515  
C242     C      0.357180000000     0.505270000000     0.807090000000    -0.0707368  
C243     C      0.386250000000     0.505550000000     0.836090000000     0.0245456  
C244     C      0.376030000000     0.505570000000     0.876190000000    -0.106997   
C245     C      0.335970000000     0.505220000000     0.886490000000     0.0246102  
C246     C      0.306930000000     0.504970000000     0.857470000000    -0.0707957  
C247     C      0.876060000000     0.508680000000     0.638330000000    -0.106975   
C248     C      0.886340000000     0.508980000000     0.678410000000     0.0246451  
C249     C      0.857310000000     0.509260000000     0.707450000000    -0.0706728  
C250     C      0.817320000000     0.509280000000     0.697150000000     0.0305922  
C251     C      0.806990000000     0.509080000000     0.657150000000    -0.0707089  
C252     C      0.835980000000     0.508770000000     0.628080000000     0.0245498  
C253     C      0.786490000000     0.509390000000     0.728030000000    -0.000708307
C254     C      0.790470000000     0.485840000000     0.761740000000    -0.0376228  
C255     C      0.761430000000     0.485860000000     0.790760000000    -0.0375527  
C256     C      0.727750000000     0.509420000000     0.786720000000    -0.000769087
C257     C      0.723780000000     0.532990000000     0.753020000000    -0.0374615  
C258     C      0.752830000000     0.532980000000     0.724000000000    -0.0375062  
C259     C      0.696850000000     0.509350000000     0.817540000000     0.0306403  
C260     C      0.707110000000     0.509360000000     0.857560000000    -0.070726   
C261     C      0.678060000000     0.509100000000     0.886570000000     0.0246685  
C262     C      0.638010000000     0.508810000000     0.876250000000    -0.10696    
C263     C      0.627810000000     0.508880000000     0.836150000000     0.0246277  
C264     C      0.656880000000     0.509160000000     0.807160000000    -0.0707976  
C265     C      0.875860000000     0.876310000000     0.005750000000    -0.106302   
C266     C      0.886080000000     0.836250000000     0.005700000000     0.0242631  
C267     C      0.857010000000     0.807270000000     0.005420000000    -0.0706432  
C268     C      0.817020000000     0.817580000000     0.005210000000     0.030666   
C269     C      0.806760000000     0.857560000000     0.005200000000    -0.0706427  
C270     C      0.835800000000     0.886570000000     0.005450000000     0.0242431  
C271     C      0.786130000000     0.786750000000     0.005120000000    -0.00201267 
C272     C      0.790210000000     0.753000000000     0.981660000000    -0.0361067  
C273     C      0.761200000000     0.723960000000     0.981670000000    -0.036106   
C274     C      0.727430000000     0.728000000000     0.005140000000    -0.00211262 
C275     C      0.723330000000     0.761770000000     0.028580000000    -0.0374103  
C276     C      0.752340000000     0.790800000000     0.028570000000    -0.0374365  
C277     C      0.696610000000     0.697090000000     0.005240000000     0.0307368  
C278     C      0.706970000000     0.657140000000     0.005450000000    -0.0709279  
C279     C      0.677990000000     0.628060000000     0.005730000000     0.0243084  
C280     C      0.637900000000     0.638230000000     0.005770000000    -0.106809   
C281     C      0.627600000000     0.678270000000     0.005470000000     0.0242961  
C282     C      0.656600000000     0.707320000000     0.005220000000    -0.0709146  
C283     C      0.876050000000     0.138210000000     0.008680000000    -0.106592   
C284     C      0.835970000000     0.127990000000     0.008970000000     0.0242117  
C285     C      0.806960000000     0.157030000000     0.009200000000    -0.070825   
C286     C      0.817260000000     0.197000000000     0.009180000000     0.0306105  
C287     C      0.857260000000     0.207270000000     0.008990000000    -0.0707154  
C288     C      0.886300000000     0.178260000000     0.008730000000     0.0242758  
C289     C      0.786390000000     0.227850000000     0.009260000000    -0.00205989 
C290     C      0.752610000000     0.223810000000     0.985800000000    -0.0363442  
C291     C      0.723600000000     0.252850000000     0.985810000000    -0.0362385  
C292     C      0.727690000000     0.286600000000     0.009260000000    -0.00216448 
C293     C      0.761470000000     0.290640000000     0.032720000000    -0.0373345  
C294     C      0.790490000000     0.261600000000     0.032720000000    -0.037427   
C295     C      0.696850000000     0.317480000000     0.009210000000     0.0306723  
C296     C      0.656850000000     0.307230000000     0.009240000000    -0.0709383  
C297     C      0.627820000000     0.336240000000     0.009020000000     0.0242918  
C298     C      0.638080000000     0.376290000000     0.008730000000    -0.106837   
C299     C      0.678170000000     0.386500000000     0.008780000000     0.0242792  
C300     C      0.707170000000     0.357450000000     0.009030000000    -0.0708645  
C301     C      0.375860000000     0.638020000000     0.008740000000    -0.10682    
C302     C      0.386070000000     0.678080000000     0.008820000000     0.0243064  
C303     C      0.357010000000     0.707070000000     0.009110000000    -0.0709085  
C304     C      0.317020000000     0.696750000000     0.009290000000     0.0306704  
C305     C      0.306750000000     0.656770000000     0.009270000000    -0.0709195  
C306     C      0.335790000000     0.627760000000     0.009020000000     0.0242465  
C307     C      0.286120000000     0.727580000000     0.009400000000    -0.00213058 
C308     C      0.290200000000     0.761320000000     0.032880000000    -0.0373041  
C309     C      0.261180000000     0.790360000000     0.032890000000    -0.0374255  
C310     C      0.227420000000     0.786330000000     0.009400000000    -0.00207726 
C311     C      0.223330000000     0.752580000000     0.985940000000    -0.0363012  
C312     C      0.252350000000     0.723550000000     0.985930000000    -0.0362546  
C313     C      0.196610000000     0.817240000000     0.009320000000     0.0306182  
C314     C      0.206970000000     0.857190000000     0.009140000000    -0.070767   
C315     C      0.177990000000     0.886270000000     0.008860000000     0.0242897  
C316     C      0.137900000000     0.876100000000     0.008790000000    -0.106641   
C317     C      0.127590000000     0.836060000000     0.009080000000     0.0241742  
C318     C      0.156590000000     0.807020000000     0.009320000000    -0.0709097  
C319     C      0.138110000000     0.138030000000     0.005720000000    -0.106705   
C320     C      0.127890000000     0.178090000000     0.005640000000     0.0242195  
C321     C      0.156960000000     0.207070000000     0.005360000000    -0.0709366  
C322     C      0.196950000000     0.196750000000     0.005170000000     0.0306474  
C323     C      0.207220000000     0.156770000000     0.005190000000    -0.0708809  
C324     C      0.178170000000     0.127760000000     0.005440000000     0.024231   
C325     C      0.227840000000     0.227590000000     0.005080000000    -0.00212809 
C326     C      0.223770000000     0.261320000000     0.981590000000    -0.0361894  
C327     C      0.252780000000     0.290360000000     0.981600000000    -0.0361301  
C328     C      0.286550000000     0.286330000000     0.005080000000    -0.00214981 
C329     C      0.290630000000     0.252580000000     0.028540000000    -0.0375287  
C330     C      0.261620000000     0.223550000000     0.028540000000    -0.0374979  
C331     C      0.317360000000     0.317240000000     0.005170000000     0.0306319  
C332     C      0.307000000000     0.357200000000     0.005360000000    -0.0709285  
C333     C      0.335980000000     0.386280000000     0.005640000000     0.0242577  
C334     C      0.376070000000     0.376110000000     0.005710000000    -0.106833   
C335     C      0.386370000000     0.336070000000     0.005420000000     0.0242982  
C336     C      0.357380000000     0.307020000000     0.005170000000    -0.0708921  
C337     C      0.876030000000     0.006290000000     0.876180000000    -0.106969   
C338     C      0.835960000000     0.006430000000     0.886450000000     0.0245994  
C339     C      0.806950000000     0.006560000000     0.857400000000    -0.0709766  
C340     C      0.817250000000     0.006570000000     0.817390000000     0.0308496  
C341     C      0.857230000000     0.006340000000     0.807060000000    -0.0709121  
C342     C      0.886280000000     0.006180000000     0.836090000000     0.0245728  
C343     C      0.786400000000     0.006900000000     0.786540000000    -0.00206174 
C344     C      0.752580000000     0.983520000000     0.790450000000    -0.0362603  
C345     C      0.723520000000     0.983890000000     0.761440000000    -0.0361394  
C346     C      0.727630000000     0.007630000000     0.727880000000    -0.00217678 
C347     C      0.761460000000     0.031010000000     0.723970000000    -0.0373594  
C348     C      0.790510000000     0.030640000000     0.752980000000    -0.0374197  
C349     C      0.696770000000     0.007970000000     0.697030000000     0.0309015  
C350     C      0.656790000000     0.008180000000     0.707370000000    -0.071157   
C351     C      0.627740000000     0.008320000000     0.678350000000     0.0246102  
C352     C      0.637990000000     0.008220000000     0.638260000000    -0.107322   
C353     C      0.678050000000     0.008090000000     0.627980000000     0.0246311  
C354     C      0.707070000000     0.007980000000     0.657020000000    -0.0711141  
C355     C      0.376030000000     0.006150000000     0.638300000000    -0.107364   
C356     C      0.386270000000     0.006220000000     0.678390000000     0.0246547  
C357     C      0.357220000000     0.006320000000     0.707410000000    -0.0711293  
C358     C      0.317240000000     0.006390000000     0.697070000000     0.0308945  
C359     C      0.306940000000     0.006240000000     0.657060000000    -0.0710701  
C360     C      0.335960000000     0.006100000000     0.628020000000     0.0246011  
C361     C      0.286380000000     0.006720000000     0.727920000000    -0.00213483 
C362     C      0.290210000000     0.983290000000     0.761730000000    -0.0360637  
C363     C      0.261190000000     0.983620000000     0.790760000000    -0.0361452  
C364     C      0.227670000000     0.007410000000     0.786640000000    -0.00208627 
C365     C      0.223840000000     0.030850000000     0.752830000000    -0.0373705  
C366     C      0.252870000000     0.030510000000     0.723800000000    -0.0373988  
C367     C      0.196800000000     0.007730000000     0.817480000000     0.0309297  
C368     C      0.207090000000     0.007880000000     0.857490000000    -0.0709868  
C369     C      0.178060000000     0.008030000000     0.886530000000     0.0246428  
C370     C      0.138000000000     0.007990000000     0.876230000000    -0.107048   
C371     C      0.127770000000     0.007920000000     0.836140000000     0.0245679  
C372     C      0.156830000000     0.007800000000     0.807130000000    -0.0710348  
C373     C      0.375980000000     0.008230000000     0.376230000000    -0.107362   
C374     C      0.335920000000     0.008360000000     0.386530000000     0.0245764  
C375     C      0.306890000000     0.008210000000     0.357490000000    -0.071086   
C376     C      0.317170000000     0.007960000000     0.317480000000     0.0308317  
C377     C      0.357150000000     0.007960000000     0.307130000000    -0.0711085  
C378     C      0.386210000000     0.008080000000     0.336140000000     0.0246092  
C379     C      0.286300000000     0.007620000000     0.286640000000    -0.00214796 
C380     C      0.252760000000     0.983890000000     0.290820000000    -0.0362416  
C381     C      0.223730000000     0.983530000000     0.261780000000    -0.0361982  
C382     C      0.227600000000     0.006880000000     0.227920000000    -0.00216104 
C383     C      0.261140000000     0.030620000000     0.223750000000    -0.0374427  
C384     C      0.290170000000     0.030980000000     0.252780000000    -0.0374234  
C385     C      0.196740000000     0.006530000000     0.197080000000     0.0308014  
C386     C      0.156760000000     0.006530000000     0.207410000000    -0.0710435  
C387     C      0.127700000000     0.006390000000     0.178400000000     0.0245617  
C388     C      0.137950000000     0.006230000000     0.138300000000    -0.107311   
C389     C      0.178010000000     0.006100000000     0.128020000000     0.024544   
C390     C      0.207030000000     0.006270000000     0.157060000000    -0.0711111  
C391     C      0.875980000000     0.008180000000     0.138260000000    -0.107143   
C392     C      0.886220000000     0.008230000000     0.178360000000     0.024534   
C393     C      0.857170000000     0.008060000000     0.207370000000    -0.0710828  
C394     C      0.817190000000     0.007860000000     0.197030000000     0.0307787  
C395     C      0.806900000000     0.007920000000     0.157010000000    -0.0709817  
C396     C      0.835920000000     0.008070000000     0.127970000000     0.0245164  
C397     C      0.786330000000     0.007490000000     0.227870000000    -0.00215998 
C398     C      0.790430000000     0.983700000000     0.261400000000    -0.0362472  
C399     C      0.761370000000     0.983310000000     0.290410000000    -0.0362336  
C400     C      0.727560000000     0.006710000000     0.286530000000    -0.00217522 
C401     C      0.723450000000     0.030490000000     0.252990000000    -0.0374508  
C402     C      0.752510000000     0.030880000000     0.223990000000    -0.0374389  
C403     C      0.696710000000     0.006360000000     0.317380000000     0.0308441  
C404     C      0.707020000000     0.006300000000     0.357390000000    -0.0712059  
C405     C      0.678000000000     0.006180000000     0.386440000000     0.02467    
C406     C      0.637940000000     0.006090000000     0.376180000000    -0.107427   
C407     C      0.627680000000     0.006020000000     0.336080000000     0.0245773  
C408     C      0.656720000000     0.006170000000     0.307060000000    -0.0710977  
C409     C      0.008580000000     0.376200000000     0.638270000000    -0.107011   
C410     C      0.008680000000     0.336160000000     0.628000000000     0.0243976  
C411     C      0.008970000000     0.307150000000     0.657050000000    -0.0709792  
C412     C      0.009150000000     0.317430000000     0.697060000000     0.0307789  
C413     C      0.009130000000     0.357390000000     0.707390000000    -0.0710532  
C414     C      0.008860000000     0.386430000000     0.678370000000     0.0244151  
C415     C      0.009240000000     0.286580000000     0.727930000000    -0.0021536  
C416     C      0.032770000000     0.252890000000     0.723850000000    -0.0374009  
C417     C      0.032760000000     0.223830000000     0.752860000000    -0.0374277  
C418     C      0.009230000000     0.227810000000     0.786600000000    -0.00209678 
C419     C      0.985710000000     0.261510000000     0.790680000000    -0.0363096  
C420     C      0.985720000000     0.290560000000     0.761680000000    -0.0361771  
C421     C      0.009160000000     0.196910000000     0.817420000000     0.0306989  
C422     C      0.008980000000     0.156960000000     0.807050000000    -0.0709316  
C423     C      0.008690000000     0.127890000000     0.836040000000     0.0242678  
C424     C      0.008620000000     0.138080000000     0.876150000000    -0.106765   
C425     C      0.008910000000     0.178120000000     0.886460000000     0.0244135  
C426     C      0.009160000000     0.207150000000     0.857450000000    -0.0709336  
C427     C      0.005410000000     0.876170000000     0.876250000000    -0.106661   
C428     C      0.005360000000     0.886340000000     0.836130000000     0.0244453  
C429     C      0.005080000000     0.857260000000     0.807150000000    -0.0708121  
C430     C      0.004880000000     0.817310000000     0.817540000000     0.0307803  
C431     C      0.004860000000     0.807090000000     0.857570000000    -0.0708587  
C432     C      0.005110000000     0.836140000000     0.886570000000     0.0244077  
C433     C      0.004800000000     0.786410000000     0.786730000000    -0.00203896 
C434     C      0.981270000000     0.790390000000     0.752980000000    -0.0361256  
C435     C      0.981270000000     0.761340000000     0.723970000000    -0.0360695  
C436     C      0.004790000000     0.727640000000     0.728060000000    -0.00210008 
C437     C      0.028300000000     0.723650000000     0.761810000000    -0.0373934  
C438     C      0.028300000000     0.752700000000     0.790810000000    -0.037426   
C439     C      0.004890000000     0.696800000000     0.697180000000     0.0307989  
C440     C      0.005090000000     0.707100000000     0.657170000000    -0.071029   
C441     C      0.005380000000     0.678100000000     0.628110000000     0.0244815  
C442     C      0.005450000000     0.638050000000     0.638360000000    -0.107052   
C443     C      0.005160000000     0.627800000000     0.678450000000     0.0244132  
C444     C      0.004900000000     0.656830000000     0.707490000000    -0.070966   
C445     C      0.008410000000     0.876290000000     0.138360000000    -0.106796   
C446     C      0.008490000000     0.836240000000     0.128100000000     0.0243827  
C447     C      0.008770000000     0.807240000000     0.157160000000    -0.0708498  
C448     C      0.008940000000     0.817540000000     0.197170000000     0.030724   
C449     C      0.008930000000     0.857510000000     0.207480000000    -0.0709364  
C450     C      0.008680000000     0.886530000000     0.178450000000     0.0244012  
C451     C      0.009030000000     0.786690000000     0.228050000000    -0.0020927  
C452     C      0.032570000000     0.753000000000     0.223980000000    -0.0373737  
C453     C      0.032560000000     0.723950000000     0.252980000000    -0.0373646  
C454     C      0.009020000000     0.727930000000     0.286720000000    -0.00214313 
C455     C      0.985510000000     0.761620000000     0.290800000000    -0.0362493  
C456     C      0.985510000000     0.790680000000     0.261790000000    -0.0362722  
C457     C      0.008940000000     0.697020000000     0.317530000000     0.0307665  
C458     C      0.008770000000     0.657070000000     0.307150000000    -0.0709527  
C459     C      0.008510000000     0.627990000000     0.336130000000     0.0243843  
C460     C      0.008440000000     0.638170000000     0.376250000000    -0.107019   
C461     C      0.008710000000     0.678200000000     0.386570000000     0.0244375  
C462     C      0.008940000000     0.707250000000     0.357560000000    -0.0710693  
C463     C      0.005510000000     0.138170000000     0.138240000000    -0.107058   
C464     C      0.005430000000     0.128000000000     0.178350000000     0.024492   
C465     C      0.005150000000     0.157080000000     0.207340000000    -0.0709946  
C466     C      0.004960000000     0.197030000000     0.196950000000     0.0307792  
C467     C      0.004970000000     0.207250000000     0.156920000000    -0.0709698  
C468     C      0.005220000000     0.178200000000     0.127910000000     0.0244434  
C469     C      0.004870000000     0.227940000000     0.227760000000    -0.00208423 
C470     C      0.981330000000     0.223950000000     0.261500000000    -0.0361715  
C471     C      0.981310000000     0.253010000000     0.290500000000    -0.0360893  
C472     C      0.004840000000     0.286700000000     0.286430000000    -0.00213255 
C473     C      0.028360000000     0.290690000000     0.252690000000    -0.0373964  
C474     C      0.028380000000     0.261640000000     0.223690000000    -0.0374649  
C475     C      0.004920000000     0.317550000000     0.317310000000     0.0308052  
C476     C      0.005100000000     0.307250000000     0.357320000000    -0.0710401  
C477     C      0.005380000000     0.336240000000     0.386380000000     0.0244656  
C478     C      0.005460000000     0.376290000000     0.376130000000    -0.107038   
C479     C      0.005180000000     0.386540000000     0.336030000000     0.0243976  
C480     C      0.004930000000     0.357510000000     0.307000000000    -0.0709796  
H1       H      0.950660000000     0.950960000000     0.063560000000     0.210005   
H2       H      0.063290000000     0.063430000000     0.063540000000     0.209786   
H3       H      0.950760000000     0.063460000000     0.950910000000     0.210139   
H4       H      0.063230000000     0.950830000000     0.950970000000     0.210005   
H5       H      0.950680000000     0.563420000000     0.450940000000     0.209879   
H6       H      0.063260000000     0.450960000000     0.450870000000     0.20988    
H7       H      0.950730000000     0.450900000000     0.563580000000     0.209721   
H8       H      0.063270000000     0.563410000000     0.563590000000     0.20965    
H9       H      0.450690000000     0.950930000000     0.450960000000     0.210095   
H10      H      0.563260000000     0.063390000000     0.450920000000     0.209988   
H11      H      0.563260000000     0.950920000000     0.563540000000     0.20997    
H12      H      0.450730000000     0.063430000000     0.563550000000     0.209872   
H13      H      0.563340000000     0.450970000000     0.950940000000     0.209722   
H14      H      0.450710000000     0.450880000000     0.063530000000     0.209753   
H15      H      0.450650000000     0.563380000000     0.950930000000     0.209856   
H16      H      0.563240000000     0.563450000000     0.063570000000     0.209615   
H17      H      0.506120000000     0.187220000000     0.416970000000     0.0329297  
H18      H      0.506700000000     0.237680000000     0.366340000000     0.0461428  
H19      H      0.505610000000     0.148050000000     0.276460000000     0.045948   
H20      H      0.505760000000     0.097400000000     0.326930000000     0.0328099  
H21      H      0.464070000000     0.265300000000     0.315670000000     0.0376605  
H22      H      0.464710000000     0.316030000000     0.265060000000     0.0375073  
H23      H      0.549750000000     0.248980000000     0.198760000000     0.0377553  
H24      H      0.549110000000     0.198260000000     0.249370000000     0.0374399  
H25      H      0.508220000000     0.366230000000     0.237990000000     0.046161   
H26      H      0.508110000000     0.416890000000     0.187530000000     0.0329345  
H27      H      0.507750000000     0.327100000000     0.097480000000     0.0328405  
H28      H      0.507140000000     0.276620000000     0.148090000000     0.0460063  
H29      H      0.508160000000     0.916900000000     0.326950000000     0.0332638  
H30      H      0.508290000000     0.866250000000     0.276490000000     0.0463576  
H31      H      0.507170000000     0.776630000000     0.366380000000     0.0461444  
H32      H      0.507780000000     0.827100000000     0.417000000000     0.0329457  
H33      H      0.464770000000     0.816050000000     0.249410000000     0.0376589  
H34      H      0.464130000000     0.765320000000     0.198800000000     0.0377471  
H35      H      0.549150000000     0.698260000000     0.265110000000     0.0375486  
H36      H      0.549790000000     0.748990000000     0.315720000000     0.0377159  
H37      H      0.506760000000     0.737690000000     0.148140000000     0.0460782  
H38      H      0.506160000000     0.687230000000     0.097510000000     0.0328472  
H39      H      0.505770000000     0.597410000000     0.187550000000     0.0329381  
H40      H      0.505640000000     0.648060000000     0.238020000000     0.0461512  
H41      H      0.505680000000     0.916940000000     0.687550000000     0.0332103  
H42      H      0.505510000000     0.866300000000     0.738020000000     0.046313   
H43      H      0.506720000000     0.776660000000     0.648150000000     0.0461578  
H44      H      0.506150000000     0.827120000000     0.597520000000     0.0329551  
H45      H      0.549000000000     0.816110000000     0.765150000000     0.0376415  
H46      H      0.549620000000     0.765380000000     0.815760000000     0.0380173  
H47      H      0.464680000000     0.698290000000     0.749390000000     0.0375719  
H48      H      0.464060000000     0.749020000000     0.698780000000     0.0376992  
H49      H      0.506970000000     0.737720000000     0.866390000000     0.0464228  
H50      H      0.507590000000     0.687250000000     0.917010000000     0.0333033  
H51      H      0.508090000000     0.597450000000     0.826950000000     0.032948   
H52      H      0.508210000000     0.648110000000     0.776500000000     0.0461574  
H53      H      0.507870000000     0.187240000000     0.597480000000     0.0329219  
H54      H      0.507320000000     0.237710000000     0.648110000000     0.0461706  
H55      H      0.508530000000     0.148080000000     0.737990000000     0.0463369  
H56      H      0.508350000000     0.097430000000     0.687530000000     0.0329577  
H57      H      0.549970000000     0.265360000000     0.698740000000     0.0376833  
H58      H      0.549350000000     0.316090000000     0.749350000000     0.0375722  
H59      H      0.464410000000     0.249000000000     0.815720000000     0.0380477  
H60      H      0.465030000000     0.198270000000     0.765120000000     0.0377277  
H61      H      0.505830000000     0.366270000000     0.776470000000     0.0461609  
H62      H      0.505940000000     0.416930000000     0.826930000000     0.0329447  
H63      H      0.506450000000     0.327110000000     0.916980000000     0.0332157  
H64      H      0.507070000000     0.276650000000     0.866360000000     0.0462986  
H65      H      0.826780000000     0.416870000000     0.506100000000     0.0329743  
H66      H      0.776340000000     0.366230000000     0.505990000000     0.046147   
H67      H      0.866150000000     0.276580000000     0.507210000000     0.0462307  
H68      H      0.916750000000     0.327040000000     0.506600000000     0.0332282  
H69      H      0.749110000000     0.316100000000     0.549420000000     0.0375609  
H70      H      0.698500000000     0.265400000000     0.550030000000     0.0376764  
H71      H      0.764950000000     0.198150000000     0.465250000000     0.0376045  
H72      H      0.815560000000     0.248840000000     0.464650000000     0.0377947  
H73      H      0.647920000000     0.237690000000     0.507440000000     0.0461289  
H74      H      0.597290000000     0.187250000000     0.508000000000     0.0329493  
H75      H      0.687230000000     0.097390000000     0.508510000000     0.0329089  
H76      H      0.737690000000     0.148010000000     0.508670000000     0.0461347  
H77      H      0.826740000000     0.597400000000     0.508500000000     0.0329928  
H78      H      0.776280000000     0.648020000000     0.508620000000     0.0461193  
H79      H      0.866050000000     0.737700000000     0.507280000000     0.0461718  
H80      H      0.916680000000     0.687260000000     0.507890000000     0.0332047  
H81      H      0.749010000000     0.698120000000     0.465170000000     0.0375435  
H82      H      0.698400000000     0.748810000000     0.464540000000     0.0376667  
H83      H      0.764880000000     0.816140000000     0.549230000000     0.0377184  
H84      H      0.815490000000     0.765450000000     0.549850000000     0.0378576  
H85      H      0.647830000000     0.776590000000     0.507110000000     0.0461065  
H86      H      0.597220000000     0.827050000000     0.506520000000     0.0329784  
H87      H      0.687180000000     0.916880000000     0.505900000000     0.0332692  
H88      H      0.737630000000     0.866240000000     0.505770000000     0.0462672  
H89      H      0.187230000000     0.416940000000     0.508240000000     0.0329541  
H90      H      0.237690000000     0.366320000000     0.508380000000     0.0461363  
H91      H      0.147920000000     0.276640000000     0.507320000000     0.0460464  
H92      H      0.097290000000     0.327090000000     0.507920000000     0.0328987  
H93      H      0.264900000000     0.316130000000     0.464980000000     0.0375671  
H94      H      0.315510000000     0.265440000000     0.464390000000     0.0377005  
H95      H      0.249150000000     0.198280000000     0.549300000000     0.0373577  
H96      H      0.198540000000     0.248970000000     0.549890000000     0.0375937  
H97      H      0.366140000000     0.237750000000     0.506950000000     0.0461137  
H98      H      0.416750000000     0.187300000000     0.506370000000     0.0329564  
H99      H      0.326780000000     0.097460000000     0.506060000000     0.0329045  
H100     H      0.276340000000     0.148100000000     0.505900000000     0.0461153  
H101     H      0.187190000000     0.597480000000     0.506080000000     0.0329534  
H102     H      0.237630000000     0.648110000000     0.505970000000     0.0461472  
H103     H      0.147830000000     0.737760000000     0.507280000000     0.0462563  
H104     H      0.097220000000     0.687300000000     0.506660000000     0.0329619  
H105     H      0.264860000000     0.698230000000     0.549430000000     0.0375921  
H106     H      0.315480000000     0.748920000000     0.550050000000     0.0377124  
H107     H      0.249010000000     0.816210000000     0.465320000000     0.0375893  
H108     H      0.198400000000     0.765520000000     0.464710000000     0.0378945  
H109     H      0.366050000000     0.776650000000     0.507470000000     0.0461264  
H110     H      0.416680000000     0.827090000000     0.508040000000     0.0329735  
H111     H      0.326740000000     0.916950000000     0.508580000000     0.0332676  
H112     H      0.276280000000     0.866330000000     0.508740000000     0.0463392  
H113     H      0.916750000000     0.505210000000     0.327020000000     0.033295   
H114     H      0.866120000000     0.504390000000     0.276530000000     0.0464592  
H115     H      0.776350000000     0.505820000000     0.366330000000     0.046112   
H116     H      0.826810000000     0.505920000000     0.417000000000     0.032906   
H117     H      0.815710000000     0.547500000000     0.249150000000     0.0376726  
H118     H      0.765010000000     0.547520000000     0.198490000000     0.0376105  
H119     H      0.698320000000     0.462590000000     0.265260000000     0.0379762  
H120     H      0.749040000000     0.462570000000     0.315940000000     0.0380112  
H121     H      0.737590000000     0.504420000000     0.148080000000     0.0462681  
H122     H      0.687090000000     0.505240000000     0.097470000000     0.0329188  
H123     H      0.597240000000     0.505970000000     0.187540000000     0.0328773  
H124     H      0.647930000000     0.505870000000     0.237980000000     0.0461783  
H125     H      0.097140000000     0.509120000000     0.326980000000     0.0328101  
H126     H      0.147750000000     0.509930000000     0.276470000000     0.0461007  
H127     H      0.237550000000     0.508660000000     0.366230000000     0.0461572  
H128     H      0.187110000000     0.508570000000     0.416920000000     0.0328866  
H129     H      0.198200000000     0.466850000000     0.249100000000     0.0373216  
H130     H      0.248900000000     0.466810000000     0.198440000000     0.0374267  
H131     H      0.315530000000     0.551860000000     0.265120000000     0.0379813  
H132     H      0.264810000000     0.551900000000     0.315790000000     0.0379651  
H133     H      0.276320000000     0.509850000000     0.147980000000     0.0462329  
H134     H      0.326840000000     0.509000000000     0.097390000000     0.0328995  
H135     H      0.416650000000     0.508450000000     0.187490000000     0.0328887  
H136     H      0.365950000000     0.508580000000     0.237920000000     0.0461355  
H137     H      0.187160000000     0.505930000000     0.597480000000     0.0328742  
H138     H      0.237620000000     0.505820000000     0.648160000000     0.0461565  
H139     H      0.147850000000     0.504310000000     0.737950000000     0.0462106  
H140     H      0.097220000000     0.505140000000     0.687460000000     0.0328586  
H141     H      0.264950000000     0.462540000000     0.698510000000     0.0379685  
H142     H      0.315660000000     0.462540000000     0.749190000000     0.0379983  
H143     H      0.248950000000     0.547400000000     0.816030000000     0.0373109  
H144     H      0.198250000000     0.547400000000     0.765370000000     0.0373013  
H145     H      0.366040000000     0.505810000000     0.776500000000     0.0461302  
H146     H      0.416730000000     0.505900000000     0.826950000000     0.0329006  
H147     H      0.326880000000     0.505080000000     0.917020000000     0.0331309  
H148     H      0.276390000000     0.504270000000     0.866400000000     0.0462496  
H149     H      0.916840000000     0.509060000000     0.687510000000     0.0332272  
H150     H      0.866220000000     0.509920000000     0.738020000000     0.046435   
H151     H      0.776420000000     0.508600000000     0.648260000000     0.0461219  
H152     H      0.826860000000     0.508460000000     0.597570000000     0.0329101  
H153     H      0.815760000000     0.466890000000     0.765430000000     0.0375391  
H154     H      0.765070000000     0.466910000000     0.816090000000     0.0376005  
H155     H      0.698460000000     0.551920000000     0.749320000000     0.037992   
H156     H      0.749180000000     0.551890000000     0.698650000000     0.0380263  
H157     H      0.737650000000     0.510020000000     0.866510000000     0.0464448  
H158     H      0.687130000000     0.509200000000     0.917100000000     0.0332463  
H159     H      0.597320000000     0.508560000000     0.826990000000     0.0328831  
H160     H      0.648030000000     0.508660000000     0.776570000000     0.0461629  
H161     H      0.916570000000     0.827120000000     0.006020000000     0.0331667  
H162     H      0.865890000000     0.776720000000     0.005930000000     0.0461343  
H163     H      0.776210000000     0.866490000000     0.004530000000     0.0461558  
H164     H      0.826710000000     0.917060000000     0.005350000000     0.0331238  
H165     H      0.815600000000     0.749270000000     0.962810000000     0.038211   
H166     H      0.764960000000     0.698590000000     0.962830000000     0.0381613  
H167     H      0.697960000000     0.765490000000     0.047450000000     0.0375337  
H168     H      0.748590000000     0.816150000000     0.047440000000     0.0376127  
H169     H      0.737540000000     0.648290000000     0.005960000000     0.0460037  
H170     H      0.687150000000     0.597600000000     0.006040000000     0.0327766  
H171     H      0.597090000000     0.687320000000     0.005360000000     0.032812   
H172     H      0.647640000000     0.737830000000     0.004540000000     0.0461235  
H173     H      0.826850000000     0.097510000000     0.009080000000     0.0327655  
H174     H      0.776400000000     0.148130000000     0.009870000000     0.045863   
H175     H      0.866170000000     0.237810000000     0.008480000000     0.0461129  
H176     H      0.916800000000     0.187350000000     0.008420000000     0.0330715  
H177     H      0.748860000000     0.198470000000     0.966930000000     0.037702   
H178     H      0.698230000000     0.249130000000     0.966940000000     0.0376589  
H179     H      0.765230000000     0.316010000000     0.051570000000     0.0378982  
H180     H      0.815880000000     0.265330000000     0.051560000000     0.0379658  
H181     H      0.647920000000     0.276700000000     0.009910000000     0.0459108  
H182     H      0.597320000000     0.327150000000     0.009140000000     0.032762   
H183     H      0.687290000000     0.416980000000     0.008470000000     0.0327721  
H184     H      0.737730000000     0.366330000000     0.008510000000     0.046048   
H185     H      0.416560000000     0.687210000000     0.008520000000     0.0327808  
H186     H      0.365890000000     0.737610000000     0.008630000000     0.0460672  
H187     H      0.276200000000     0.647840000000     0.009920000000     0.0458773  
H188     H      0.326710000000     0.597270000000     0.009100000000     0.0327439  
H189     H      0.315580000000     0.765030000000     0.051740000000     0.0377159  
H190     H      0.264940000000     0.815710000000     0.051750000000     0.0378756  
H191     H      0.197970000000     0.748880000000     0.967050000000     0.0373864  
H192     H      0.248600000000     0.698210000000     0.967050000000     0.0373854  
H193     H      0.237540000000     0.866040000000     0.008640000000     0.0461352  
H194     H      0.187150000000     0.916740000000     0.008560000000     0.0330537  
H195     H      0.097080000000     0.827010000000     0.009170000000     0.0327007  
H196     H      0.147630000000     0.776500000000     0.009980000000     0.0457828  
H197     H      0.097400000000     0.187210000000     0.005940000000     0.0327062  
H198     H      0.148080000000     0.237610000000     0.005850000000     0.045832   
H199     H      0.237760000000     0.147850000000     0.004530000000     0.0460431  
H200     H      0.187260000000     0.097280000000     0.005360000000     0.0327473  
H201     H      0.198390000000     0.265040000000     0.962740000000     0.0380784  
H202     H      0.249030000000     0.315730000000     0.962740000000     0.0380434  
H203     H      0.315990000000     0.248870000000     0.047420000000     0.0373368  
H204     H      0.265370000000     0.198210000000     0.047420000000     0.0372405  
H205     H      0.276430000000     0.366050000000     0.005850000000     0.0458358  
H206     H      0.326820000000     0.416740000000     0.005940000000     0.0327116  
H207     H      0.416890000000     0.327010000000     0.005330000000     0.0327614  
H208     H      0.366330000000     0.276500000000     0.004510000000     0.0460384  
H209     H      0.826860000000     0.006610000000     0.916970000000     0.0330247  
H210     H      0.776400000000     0.007210000000     0.866320000000     0.0461166  
H211     H      0.866120000000     0.005830000000     0.776480000000     0.0462238  
H212     H      0.916780000000     0.005950000000     0.826970000000     0.0330583  
H213     H      0.748820000000     0.964470000000     0.815670000000     0.038079   
H214     H      0.698090000000     0.965090000000     0.765030000000     0.037635   
H215     H      0.765220000000     0.050060000000     0.698750000000     0.0378522  
H216     H      0.815940000000     0.049440000000     0.749400000000     0.0376469  
H217     H      0.647910000000     0.008700000000     0.737950000000     0.0460869  
H218     H      0.597250000000     0.008550000000     0.687480000000     0.032747   
H219     H      0.687150000000     0.007900000000     0.597460000000     0.0327045  
H220     H      0.737620000000     0.007330000000     0.648100000000     0.0461127  
H221     H      0.416760000000     0.006350000000     0.687520000000     0.0327301  
H222     H      0.366110000000     0.006920000000     0.737990000000     0.0460705  
H223     H      0.276380000000     0.005770000000     0.648140000000     0.046111   
H224     H      0.326860000000     0.005920000000     0.597500000000     0.0327207  
H225     H      0.315400000000     0.964200000000     0.765490000000     0.0380961  
H226     H      0.264720000000     0.964780000000     0.816180000000     0.0379176  
H227     H      0.198650000000     0.049930000000     0.749070000000     0.0375486  
H228     H      0.249340000000     0.049350000000     0.698380000000     0.0372908  
H229     H      0.237640000000     0.008350000000     0.866420000000     0.0462816  
H230     H      0.187150000000     0.008210000000     0.917050000000     0.0331046  
H231     H      0.097280000000     0.007790000000     0.827000000000     0.0326906  
H232     H      0.147950000000     0.007200000000     0.776550000000     0.0460632  
H233     H      0.326830000000     0.008600000000     0.417050000000     0.0327405  
H234     H      0.276330000000     0.008740000000     0.366420000000     0.0460196  
H235     H      0.366020000000     0.007290000000     0.276550000000     0.0459985  
H236     H      0.416700000000     0.007880000000     0.327000000000     0.0326569  
H237     H      0.249200000000     0.965100000000     0.316270000000     0.0375942  
H238     H      0.198520000000     0.964480000000     0.265580000000     0.0379156  
H239     H      0.264690000000     0.049400000000     0.198290000000     0.0373258  
H240     H      0.315380000000     0.050030000000     0.248980000000     0.0376693  
H241     H      0.147870000000     0.007200000000     0.237990000000     0.0460269  
H242     H      0.097210000000     0.006580000000     0.187520000000     0.0327122  
H243     H      0.187110000000     0.005850000000     0.097500000000     0.0326102  
H244     H      0.237590000000     0.005750000000     0.148150000000     0.0459215  
H245     H      0.916710000000     0.008440000000     0.187480000000     0.0329605  
H246     H      0.866050000000     0.008530000000     0.237950000000     0.0460126  
H247     H      0.776340000000     0.007290000000     0.148090000000     0.0459876  
H248     H      0.826830000000     0.007920000000     0.097450000000     0.0326877  
H249     H      0.815850000000     0.964890000000     0.264970000000     0.0376241  
H250     H      0.765130000000     0.964230000000     0.315610000000     0.0379411  
H251     H      0.698030000000     0.049300000000     0.249430000000     0.0373477  
H252     H      0.748760000000     0.049970000000     0.198790000000     0.0376947  
H253     H      0.737570000000     0.006930000000     0.366300000000     0.0459731  
H254     H      0.687110000000     0.006340000000     0.416960000000     0.0326641  
H255     H      0.597190000000     0.005820000000     0.326960000000     0.0326924  
H256     H      0.647830000000     0.005690000000     0.276480000000     0.0460795  
H257     H      0.008380000000     0.327070000000     0.597480000000     0.0327174  
H258     H      0.008490000000     0.276610000000     0.648130000000     0.0459597  
H259     H      0.009780000000     0.366280000000     0.737960000000     0.0460456  
H260     H      0.008940000000     0.416910000000     0.687490000000     0.0327619  
H261     H      0.051660000000     0.249220000000     0.698490000000     0.0375704  
H262     H      0.051650000000     0.198500000000     0.749130000000     0.0375541  
H263     H      0.966790000000     0.265160000000     0.816020000000     0.037725   
H264     H      0.966800000000     0.315870000000     0.765400000000     0.0375573  
H265     H      0.008490000000     0.148110000000     0.776460000000     0.0458584  
H266     H      0.008390000000     0.097420000000     0.826900000000     0.032667   
H267     H      0.008990000000     0.187180000000     0.916990000000     0.0330866  
H268     H      0.009810000000     0.237670000000     0.866400000000     0.0461207  
H269     H      0.005670000000     0.916800000000     0.826970000000     0.0331315  
H270     H      0.005580000000     0.866100000000     0.776560000000     0.0462     
H271     H      0.004190000000     0.776570000000     0.866540000000     0.0461103  
H272     H      0.005010000000     0.827090000000     0.917110000000     0.033032   
H273     H      0.962400000000     0.815730000000     0.749240000000     0.0381441  
H274     H      0.962390000000     0.765010000000     0.698600000000     0.0379857  
H275     H      0.047210000000     0.698330000000     0.765550000000     0.0372519  
H276     H      0.047210000000     0.749030000000     0.816170000000     0.0373119  
H277     H      0.005580000000     0.737640000000     0.648260000000     0.046027   
H278     H      0.005690000000     0.687210000000     0.597590000000     0.0327529  
H279     H      0.005070000000     0.597320000000     0.687560000000     0.0327582  
H280     H      0.004240000000     0.647930000000     0.738060000000     0.0461074  
H281     H      0.008200000000     0.827140000000     0.097590000000     0.0327941  
H282     H      0.008280000000     0.776700000000     0.148250000000     0.0460834  
H283     H      0.009570000000     0.866400000000     0.238060000000     0.0459808  
H284     H      0.008760000000     0.917010000000     0.187570000000     0.0329873  
H285     H      0.051460000000     0.749340000000     0.198610000000     0.0378751  
H286     H      0.051450000000     0.698620000000     0.249250000000     0.0378675  
H287     H      0.966580000000     0.765280000000     0.316150000000     0.0376188  
H288     H      0.966590000000     0.815990000000     0.265520000000     0.0375875  
H289     H      0.008280000000     0.648230000000     0.276560000000     0.0460542  
H290     H      0.008220000000     0.597530000000     0.326970000000     0.0327419  
H291     H      0.008800000000     0.687250000000     0.417100000000     0.032774   
H292     H      0.009590000000     0.737760000000     0.366530000000     0.0460029  
H293     H      0.005740000000     0.097540000000     0.187520000000     0.0327165  
H294     H      0.005640000000     0.148240000000     0.237930000000     0.0460091  
H295     H      0.004310000000     0.237770000000     0.147950000000     0.0460311  
H296     H      0.005130000000     0.187260000000     0.097380000000     0.0327138  
H297     H      0.962450000000     0.198610000000     0.265230000000     0.0379828  
H298     H      0.962420000000     0.249330000000     0.315870000000     0.0378886  
H299     H      0.047270000000     0.316010000000     0.248960000000     0.0372849  
H300     H      0.047300000000     0.265310000000     0.198340000000     0.0373828  
H301     H      0.005590000000     0.276710000000     0.366230000000     0.0459557  
H302     H      0.005680000000     0.327140000000     0.416900000000     0.0327287  
H303     H      0.005090000000     0.417020000000     0.326920000000     0.0327497  
H304     H      0.004280000000     0.366410000000     0.276430000000     0.0460909  
O1       O      0.006290000000     0.118680000000     0.071150000000    -0.367864   
O2       O      0.007650000000     0.895700000000     0.071230000000    -0.367692   
O3       O      0.943060000000     0.007800000000     0.118840000000    -0.367383   
O4       O      0.070870000000     0.006620000000     0.118870000000    -0.367967   
O5       O      0.118510000000     0.006550000000     0.071200000000    -0.368133   
O6       O      0.895430000000     0.007820000000     0.071160000000    -0.368039   
O7       O      0.007740000000     0.943340000000     0.118890000000    -0.367064   
O8       O      0.006190000000     0.071100000000     0.118850000000    -0.367682   
O9       O      0.046700000000     0.967430000000     0.047040000000    -0.504207   
O10      O      0.967260000000     0.046940000000     0.046990000000    -0.504242   
O11      O      0.967050000000     0.967330000000     0.047170000000    -0.64837    
O12      O      0.046910000000     0.047040000000     0.047160000000    -0.649787   
O13      O      0.006170000000     0.895670000000     0.943340000000    -0.367196   
O14      O      0.007830000000     0.118630000000     0.943260000000    -0.367185   
O15      O      0.895370000000     0.943360000000     0.006430000000    -0.366707   
O16      O      0.118510000000     0.943190000000     0.008080000000    -0.366849   
O17      O      0.118600000000     0.070980000000     0.006440000000    -0.367416   
O18      O      0.895470000000     0.071140000000     0.008010000000    -0.36749    
O19      O      0.943110000000     0.006610000000     0.895620000000    -0.367248   
O20      O      0.070910000000     0.007660000000     0.895640000000    -0.367855   
O21      O      0.895460000000     0.006660000000     0.943290000000    -0.367276   
O22      O      0.118540000000     0.007640000000     0.943330000000    -0.367443   
O23      O      0.942980000000     0.895700000000     0.006530000000    -0.366793   
O24      O      0.943140000000     0.118730000000     0.007930000000    -0.36688    
O25      O      0.070990000000     0.118630000000     0.006480000000    -0.36756    
O26      O      0.070830000000     0.895620000000     0.008030000000    -0.367564   
O27      O      0.006160000000     0.943250000000     0.895630000000    -0.366873   
O28      O      0.007860000000     0.071010000000     0.895580000000    -0.367453   
O29      O      0.046770000000     0.046850000000     0.967470000000    -0.504199   
O30      O      0.967220000000     0.967460000000     0.967480000000    -0.502455   
O31      O      0.967120000000     0.047070000000     0.967300000000    -0.648473   
O32      O      0.046860000000     0.967240000000     0.967340000000    -0.64826    
O33      O      0.006180000000     0.395700000000     0.443250000000    -0.367911   
O34      O      0.007760000000     0.618680000000     0.443340000000    -0.367931   
O35      O      0.943060000000     0.506440000000     0.395660000000    -0.367198   
O36      O      0.070850000000     0.507980000000     0.395630000000    -0.367909   
O37      O      0.118510000000     0.508040000000     0.443280000000    -0.367965   
O38      O      0.895430000000     0.506340000000     0.443340000000    -0.367918   
O39      O      0.007680000000     0.571090000000     0.395640000000    -0.367803   
O40      O      0.006230000000     0.443340000000     0.395600000000    -0.367891   
O41      O      0.046720000000     0.546930000000     0.467480000000    -0.505423   
O42      O      0.967240000000     0.467450000000     0.467470000000    -0.504556   
O43      O      0.967070000000     0.547060000000     0.467340000000    -0.649388   
O44      O      0.046890000000     0.467310000000     0.467290000000    -0.650248   
O45      O      0.006160000000     0.618640000000     0.571240000000    -0.367938   
O46      O      0.007850000000     0.395650000000     0.571150000000    -0.367945   
O47      O      0.895390000000     0.571040000000     0.507830000000    -0.367393   
O48      O      0.118550000000     0.571090000000     0.506700000000    -0.367441   
O49      O      0.118580000000     0.443300000000     0.507740000000    -0.367455   
O50      O      0.895420000000     0.443250000000     0.506710000000    -0.367401   
O51      O      0.943120000000     0.507890000000     0.618860000000    -0.367213   
O52      O      0.070910000000     0.506390000000     0.618830000000    -0.367888   
O53      O      0.895460000000     0.507960000000     0.571210000000    -0.367861   
O54      O      0.118550000000     0.506350000000     0.571150000000    -0.367841   
O55      O      0.943030000000     0.618660000000     0.507840000000    -0.366791   
O56      O      0.943080000000     0.395650000000     0.506680000000    -0.366826   
O57      O      0.070940000000     0.395680000000     0.507740000000    -0.367458   
O58      O      0.070890000000     0.618690000000     0.506720000000    -0.367384   
O59      O      0.006250000000     0.571000000000     0.618890000000    -0.367887   
O60      O      0.007770000000     0.443260000000     0.618840000000    -0.367843   
O61      O      0.046750000000     0.467440000000     0.546980000000    -0.505471   
O62      O      0.967240000000     0.546880000000     0.547030000000    -0.504557   
O63      O      0.967100000000     0.467270000000     0.547160000000    -0.64931    
O64      O      0.046890000000     0.547040000000     0.547180000000    -0.650151   
O65      O      0.618510000000     0.006490000000     0.443280000000    -0.368215   
O66      O      0.395430000000     0.007840000000     0.443330000000    -0.36827    
O67      O      0.507580000000     0.943280000000     0.395620000000    -0.367014   
O68      O      0.506340000000     0.071040000000     0.395610000000    -0.367642   
O69      O      0.506350000000     0.118650000000     0.443280000000    -0.367798   
O70      O      0.507590000000     0.895680000000     0.443300000000    -0.36777    
O71      O      0.443060000000     0.007820000000     0.395650000000    -0.368139   
O72      O      0.570860000000     0.006500000000     0.395620000000    -0.368137   
O73      O      0.467220000000     0.046920000000     0.467460000000    -0.505268   
O74      O      0.546730000000     0.967420000000     0.467460000000    -0.504483   
O75      O      0.467080000000     0.967300000000     0.467340000000    -0.649656   
O76      O      0.546880000000     0.047030000000     0.467320000000    -0.650442   
O77      O      0.395460000000     0.006550000000     0.571190000000    -0.368221   
O78      O      0.618540000000     0.007800000000     0.571160000000    -0.368223   
O79      O      0.443030000000     0.895680000000     0.507900000000    -0.367451   
O80      O      0.443080000000     0.118690000000     0.506610000000    -0.367581   
O81      O      0.570940000000     0.118660000000     0.507850000000    -0.367508   
O82      O      0.570890000000     0.895650000000     0.506610000000    -0.367555   
O83      O      0.506350000000     0.943300000000     0.618880000000    -0.366955   
O84      O      0.507660000000     0.071060000000     0.618860000000    -0.36759    
O85      O      0.506320000000     0.895690000000     0.571200000000    -0.367751   
O86      O      0.507670000000     0.118670000000     0.571180000000    -0.367736   
O87      O      0.395400000000     0.943300000000     0.507900000000    -0.366786   
O88      O      0.618540000000     0.943250000000     0.506600000000    -0.366896   
O89      O      0.618570000000     0.071040000000     0.507850000000    -0.367427   
O90      O      0.395420000000     0.071090000000     0.506630000000    -0.367445   
O91      O      0.443100000000     0.006550000000     0.618870000000    -0.368062   
O92      O      0.570900000000     0.007820000000     0.618840000000    -0.368047   
O93      O      0.546760000000     0.046910000000     0.547010000000    -0.505286   
O94      O      0.467220000000     0.967440000000     0.547030000000    -0.504434   
O95      O      0.546880000000     0.967300000000     0.547150000000    -0.649637   
O96      O      0.467110000000     0.047050000000     0.547160000000    -0.650423   
O97      O      0.395450000000     0.443200000000     0.006480000000    -0.367665   
O98      O      0.618620000000     0.443360000000     0.007990000000    -0.367526   
O99      O      0.506520000000     0.395690000000     0.943280000000    -0.367116   
O100     O      0.507600000000     0.395680000000     0.071180000000    -0.367731   
O101     O      0.507540000000     0.443280000000     0.118870000000    -0.367614   
O102     O      0.506500000000     0.443300000000     0.895600000000    -0.367569   
O103     O      0.570990000000     0.395730000000     0.008050000000    -0.367714   
O104     O      0.443140000000     0.395630000000     0.006410000000    -0.367762   
O105     O      0.546750000000     0.467470000000     0.047020000000    -0.505373   
O106     O      0.467280000000     0.467420000000     0.967450000000    -0.504591   
O107     O      0.546930000000     0.467330000000     0.967330000000    -0.649254   
O108     O      0.467100000000     0.467260000000     0.047150000000    -0.650225   
O109     O      0.618520000000     0.571140000000     0.006540000000    -0.36767    
O110     O      0.395370000000     0.570970000000     0.007960000000    -0.36772    
O111     O      0.570910000000     0.508040000000     0.895640000000    -0.36778    
O112     O      0.570860000000     0.506370000000     0.118880000000    -0.36778    
O113     O      0.443060000000     0.507950000000     0.118840000000    -0.36785    
O114     O      0.443110000000     0.506320000000     0.895610000000    -0.367845   
O115     O      0.507480000000     0.618670000000     0.943310000000    -0.367105   
O116     O      0.506330000000     0.618650000000     0.071200000000    -0.367708   
O117     O      0.507520000000     0.571070000000     0.895620000000    -0.367645   
O118     O      0.506370000000     0.571040000000     0.118880000000    -0.367591   
O119     O      0.618530000000     0.508010000000     0.943340000000    -0.36732    
O120     O      0.395470000000     0.506340000000     0.943290000000    -0.367324   
O121     O      0.395440000000     0.507850000000     0.071150000000    -0.367969   
O122     O      0.618500000000     0.506470000000     0.071200000000    -0.367977   
O123     O      0.570830000000     0.618710000000     0.006460000000    -0.367681   
O124     O      0.442970000000     0.618630000000     0.008050000000    -0.367669   
O125     O      0.467200000000     0.546860000000     0.047010000000    -0.505406   
O126     O      0.546710000000     0.546930000000     0.967480000000    -0.50447    
O127     O      0.467060000000     0.547020000000     0.967310000000    -0.649468   
O128     O      0.546850000000     0.547070000000     0.047180000000    -0.650057   
Zr1      Zr     0.006970000000     0.007200000000     0.086520000000     1.41912    
Zr2      Zr     0.006930000000     0.927980000000     0.007280000000     1.41908    
Zr3      Zr     0.007040000000     0.086360000000     0.007210000000     1.41893    
Zr4      Zr     0.927760000000     0.007230000000     0.007230000000     1.4193     
Zr5      Zr     0.086220000000     0.007110000000     0.007260000000     1.41902    
Zr6      Zr     0.007000000000     0.007140000000     0.927970000000     1.41931    
Zr7      Zr     0.006970000000     0.507200000000     0.427980000000     1.42121    
Zr8      Zr     0.006970000000     0.586360000000     0.507280000000     1.42087    
Zr9      Zr     0.007000000000     0.427970000000     0.507220000000     1.42082    
Zr10     Zr     0.927750000000     0.507150000000     0.507260000000     1.42293    
Zr11     Zr     0.086220000000     0.507190000000     0.507220000000     1.42276    
Zr12     Zr     0.007010000000     0.507140000000     0.586510000000     1.42122    
Zr13     Zr     0.506970000000     0.007160000000     0.427970000000     1.4211     
Zr14     Zr     0.427750000000     0.007190000000     0.507260000000     1.42102    
Zr15     Zr     0.586220000000     0.007150000000     0.507230000000     1.42108    
Zr16     Zr     0.506970000000     0.927980000000     0.507250000000     1.42291    
Zr17     Zr     0.507000000000     0.086360000000     0.507230000000     1.4227     
Zr18     Zr     0.507000000000     0.007180000000     0.586510000000     1.42109    
Zr19     Zr     0.507040000000     0.427980000000     0.007230000000     1.4209     
Zr20     Zr     0.586220000000     0.507230000000     0.007260000000     1.42104    
Zr21     Zr     0.427760000000     0.507110000000     0.007220000000     1.42111    
Zr22     Zr     0.507000000000     0.507180000000     0.927960000000     1.42312    
Zr23     Zr     0.506970000000     0.507160000000     0.086520000000     1.42298    
Zr24     Zr     0.506920000000     0.586360000000     0.007250000000     1.42078    


