data_structure

_audit_creation_method RASPA-1.0
_audit_creation_date 2023-5-19
_audit_author_name 'Poobodin Mano'

_cell_length_a    21.4064
_cell_length_b    21.3688
_cell_length_c    21.363
_cell_angle_alpha 90
_cell_angle_beta  90
_cell_angle_gamma 90
_cell_volume      9772.06

_symmetry_cell_setting          triclinic
_symmetry_space_group_name_Hall 'P 1'
_symmetry_space_group_name_H-M  'P 1'
_symmetry_Int_Tables_number     1

_symmetry_equiv_pos_as_xyz 'x,y,z'

loop_
_atom_site_label
_atom_site_type_symbol
_atom_site_fract_x
_atom_site_fract_y
_atom_site_fract_z
_atom_site_charge
C1       C      0.978330000000     0.139410000000     0.146680000000     0.390944   
C2       C      0.964650000000     0.818570000000     0.137870000000     0.390014   
C3       C      0.813040000000     0.969490000000     0.137720000000     0.393179   
C4       C      0.130230000000     0.964960000000     0.147950000000     0.394759   
C5       C      0.980350000000     0.828680000000     0.817730000000     0.392327   
C6       C      0.989890000000     0.146760000000     0.827760000000     0.391674   
C7       C      0.815200000000     0.827150000000     0.964760000000     0.393901   
C8       C      0.133600000000     0.820360000000     0.992100000000     0.391917   
C9       C      0.139160000000     0.139700000000     0.984980000000     0.393092   
C10      C      0.819600000000     0.145290000000     0.991580000000     0.391247   
C11      C      0.823320000000     0.001480000000     0.818910000000     0.395885   
C12      C      0.141280000000     0.982400000000     0.829590000000     0.393526   
C13      C      0.953350000000     0.319490000000     0.323520000000     0.396553   
C14      C      0.991460000000     0.637590000000     0.318340000000     0.390448   
C15      C      0.819950000000     0.495280000000     0.318440000000     0.389039   
C16      C      0.137580000000     0.460410000000     0.319660000000     0.390187   
C17      C      0.994390000000     0.640670000000     0.638300000000     0.389107   
C18      C      0.965160000000     0.322670000000     0.642710000000     0.392247   
C19      C      0.828300000000     0.647710000000     0.485680000000     0.393576   
C20      C      0.147240000000     0.630770000000     0.467140000000     0.393594   
C21      C      0.128840000000     0.312350000000     0.485940000000     0.393859   
C22      C      0.811290000000     0.328360000000     0.488430000000     0.390211   
C23      C      0.820140000000     0.499830000000     0.638590000000     0.394498   
C24      C      0.137470000000     0.466280000000     0.639480000000     0.393405   
C25      C      0.635620000000     0.989460000000     0.317220000000     0.392801   
C26      C      0.318190000000     0.966090000000     0.326950000000     0.391972   
C27      C      0.480210000000     0.817570000000     0.320060000000     0.391426   
C28      C      0.468330000000     0.135890000000     0.323760000000     0.396374   
C29      C      0.328370000000     0.968900000000     0.645740000000     0.395702   
C30      C      0.646760000000     0.977070000000     0.636510000000     0.39135    
C31      C      0.329350000000     0.809160000000     0.492460000000     0.391165   
C32      C      0.315770000000     0.127380000000     0.486570000000     0.395249   
C33      C      0.633710000000     0.143640000000     0.470740000000     0.391391   
C34      C      0.648060000000     0.824600000000     0.460850000000     0.396341   
C35      C      0.502380000000     0.815300000000     0.639970000000     0.392328   
C36      C      0.493540000000     0.135450000000     0.641580000000     0.39406    
C37      C      0.318630000000     0.320670000000     0.999530000000     0.395342   
C38      C      0.315340000000     0.639410000000     0.972260000000     0.394391   
C39      C      0.319000000000     0.486590000000     0.141060000000     0.38868    
C40      C      0.313300000000     0.489360000000     0.821960000000     0.3968     
C41      C      0.633800000000     0.640640000000     0.964430000000     0.391026   
C42      C      0.637320000000     0.322210000000     0.964360000000     0.394153   
C43      C      0.496090000000     0.640250000000     0.136480000000     0.397029   
C44      C      0.468690000000     0.637830000000     0.817460000000     0.392392   
C45      C      0.467770000000     0.318000000000     0.819480000000     0.389522   
C46      C      0.476030000000     0.321390000000     0.137760000000     0.395159   
C47      C      0.638580000000     0.476700000000     0.135660000000     0.387246   
C48      C      0.631510000000     0.483090000000     0.814950000000     0.392463   
C49      C      0.456620000000     0.293860000000     0.247960000000    -0.0122152  
C50      C      0.486480000000     0.210370000000     0.167930000000    -0.023501   
C51      C      0.480760000000     0.246670000000     0.295810000000    -0.0110056  
C52      C      0.453400000000     0.164960000000     0.212640000000     0.0316255  
C53      C      0.469960000000     0.706210000000     0.287440000000    -0.0133761  
C54      C      0.476170000000     0.791740000000     0.206700000000    -0.0250078  
C55      C      0.515060000000     0.666910000000     0.247890000000    -0.0134154  
C56      C      0.524090000000     0.752630000000     0.170540000000     0.0295983  
C57      C      0.462410000000     0.668400000000     0.704940000000    -0.0138829  
C58      C      0.469000000000     0.750570000000     0.788900000000    -0.0258366  
C59      C      0.513370000000     0.703100000000     0.668000000000    -0.0132077  
C60      C      0.523470000000     0.780560000000     0.753460000000     0.0319236  
C61      C      0.454650000000     0.205940000000     0.789220000000    -0.013579   
C62      C      0.466760000000     0.288770000000     0.706800000000    -0.0247131  
C63      C      0.501580000000     0.164450000000     0.753830000000    -0.0140614  
C64      C      0.517330000000     0.248700000000     0.675580000000     0.0286959  
C65      C      0.778360000000     0.218890000000     0.509840000000    -0.0128146  
C66      C      0.697950000000     0.301850000000     0.490880000000    -0.0245845  
C67      C      0.744560000000     0.175450000000     0.464230000000    -0.0132392  
C68      C      0.664670000000     0.257650000000     0.444750000000     0.0296465  
C69      C      0.718000000000     0.681000000000     0.499950000000    -0.0125708  
C70      C      0.802340000000     0.761420000000     0.486410000000    -0.0255834  
C71      C      0.679210000000     0.713670000000     0.449620000000    -0.013438   
C72      C      0.762130000000     0.793490000000     0.436010000000     0.0298909  
C73      C      0.238070000000     0.281600000000     0.505000000000    -0.0124399  
C74      C      0.156090000000     0.200320000000     0.475200000000    -0.0242469  
C75      C      0.283690000000     0.237060000000     0.473580000000    -0.0107583  
C76      C      0.203640000000     0.152840000000     0.501710000000     0.0323028  
C77      C      0.299100000000     0.696550000000     0.504670000000    -0.014219   
C78      C      0.217200000000     0.780050000000     0.496280000000    -0.0250765  
C79      C      0.260720000000     0.655390000000     0.459210000000    -0.0147138  
C80      C      0.185730000000     0.742580000000     0.444160000000     0.0302385  
C81      C      0.670930000000     0.460780000000     0.246610000000    -0.0133471  
C82      C      0.751700000000     0.475490000000     0.162800000000    -0.0247551  
C83      C      0.708050000000     0.504660000000     0.289720000000    -0.0136965  
C84      C      0.785980000000     0.522040000000     0.205540000000     0.0291098  
C85      C      0.288090000000     0.494400000000     0.253520000000    -0.0132732  
C86      C      0.206400000000     0.491640000000     0.169360000000    -0.0245818  
C87      C      0.249480000000     0.447000000000     0.291560000000    -0.0139315  
C88      C      0.171980000000     0.440260000000     0.205640000000     0.0291941  
C89      C      0.167790000000     0.447260000000     0.750650000000    -0.0134042  
C90      C      0.249700000000     0.465460000000     0.668660000000    -0.0251834  
C91      C      0.200910000000     0.494230000000     0.793920000000    -0.0142989  
C92      C      0.277980000000     0.516570000000     0.710040000000     0.0303104  
C93      C      0.788780000000     0.510340000000     0.750090000000    -0.0108531  
C94      C      0.712230000000     0.532080000000     0.665580000000    -0.0228816  
C95      C      0.741130000000     0.469570000000     0.783960000000    -0.0150351  
C96      C      0.661340000000     0.494060000000     0.699700000000     0.0283931  
C97      C      0.743510000000     0.669470000000     0.942580000000    -0.0101891  
C98      C      0.658730000000     0.746930000000     0.927090000000    -0.0231753  
C99      C      0.784580000000     0.717640000000     0.974550000000    -0.0154444  
C100     C      0.701930000000     0.801000000000     0.948580000000     0.0292775  
C101     C      0.708420000000     0.176710000000     0.006660000000    -0.0103776  
C102     C      0.791280000000     0.258240000000     0.991630000000    -0.0278197  
C103     C      0.667170000000     0.210170000000     0.958310000000    -0.0161024  
C104     C      0.750780000000     0.288620000000     0.940690000000     0.0310238  
C105     C      0.243860000000     0.787940000000     0.010960000000    -0.00987075 
C106     C      0.160370000000     0.707190000000     0.996440000000    -0.0270354  
C107     C      0.286430000000     0.751560000000     0.966060000000    -0.01645    
C108     C      0.202050000000     0.673440000000     0.948720000000     0.0295094  
C109     C      0.251050000000     0.169910000000     0.973770000000    -0.015179   
C110     C      0.167290000000     0.252290000000     0.981290000000    -0.0266368  
C111     C      0.292020000000     0.209070000000     0.017980000000    -0.0123926  
C112     C      0.207120000000     0.286780000000     0.029690000000     0.0312704  
C113     C      0.678830000000     0.963840000000     0.747520000000    -0.0147683  
C114     C      0.759840000000     0.978940000000     0.663750000000    -0.0264342  
C115     C      0.712340000000     0.012140000000     0.788270000000    -0.0110173  
C116     C      0.791670000000     0.028200000000     0.705340000000     0.0313337  
C117     C      0.252230000000     0.965270000000     0.804310000000    -0.0120888  
C118     C      0.173680000000     0.994120000000     0.719300000000    -0.0264376  
C119     C      0.300740000000     0.986490000000     0.756150000000    -0.0127154  
C120     C      0.217270000000     0.958190000000     0.675230000000     0.0329908  
C121     C      0.157690000000     0.946970000000     0.259410000000    -0.0103669  
C122     C      0.233960000000     0.923550000000     0.175630000000    -0.0227737  
C123     C      0.208070000000     0.978300000000     0.299070000000    -0.0165422  
C124     C      0.288180000000     0.951270000000     0.213920000000     0.028905   
C125     C      0.664400000000     0.004230000000     0.204940000000    -0.00833513 
C126     C      0.747390000000     0.994870000000     0.287550000000    -0.02636    
C127     C      0.700690000000     0.957360000000     0.164050000000    -0.0161912  
C128     C      0.777690000000     0.942640000000     0.249480000000     0.031668   
C129     C      0.998280000000     0.259160000000     0.796400000000    -0.0153345  
C130     C      0.001180000000     0.174520000000     0.715460000000    -0.0197298  
C131     C      0.951990000000     0.295890000000     0.755200000000    -0.014074   
C132     C      0.949990000000     0.208370000000     0.678620000000     0.0280024  
C133     C      0.003720000000     0.671830000000     0.749950000000    -0.00735306 
C134     C      0.024240000000     0.749370000000     0.665670000000    -0.0214016  
C135     C      0.964110000000     0.719620000000     0.785060000000    -0.0167625  
C136     C      0.987600000000     0.800150000000     0.701630000000     0.024507   
C137     C      0.004080000000     0.749080000000     0.286360000000    -0.00783696 
C138     C      0.996240000000     0.665000000000     0.205150000000    -0.0271645  
C139     C      0.956610000000     0.788430000000     0.249700000000    -0.016764   
C140     C      0.946270000000     0.703600000000     0.170840000000     0.0300109  
C141     C      0.983830000000     0.169630000000     0.259380000000    -0.0159988  
C142     C      0.980740000000     0.252030000000     0.175180000000    -0.0268914  
C143     C      0.935690000000     0.207680000000     0.296950000000    -0.0131852  
C144     C      0.928220000000     0.284770000000     0.210980000000     0.029804   
H1       H      0.884420000000     0.892460000000     0.065660000000     0.212248   
H2       H      0.066420000000     0.068620000000     0.077830000000     0.207764   
H3       H      0.892270000000     0.078210000000     0.894470000000     0.211223   
H4       H      0.067960000000     0.893920000000     0.894000000000     0.211403   
H5       H      0.894820000000     0.574300000000     0.389900000000     0.20981    
H6       H      0.061950000000     0.383410000000     0.391460000000     0.20883    
H7       H      0.884190000000     0.397830000000     0.570930000000     0.211143   
H8       H      0.074310000000     0.565240000000     0.568260000000     0.208063   
H9       H      0.393520000000     0.882670000000     0.394790000000     0.211204   
H10      H      0.563850000000     0.069550000000     0.390020000000     0.215076   
H11      H      0.578620000000     0.889470000000     0.565940000000     0.209733   
H12      H      0.392560000000     0.061610000000     0.575000000000     0.209019   
H13      H      0.388140000000     0.571830000000     0.069650000000     0.207769   
H14      H      0.382980000000     0.388920000000     0.891480000000     0.207328   
H15      H      0.567690000000     0.390950000000     0.065820000000     0.207966   
H16      H      0.561290000000     0.568540000000     0.885920000000     0.212509   
H17      H      0.474020000000     0.198760000000     0.118670000000     0.0454242  
H18      H      0.404890000000     0.296780000000     0.251490000000     0.0429196  
H19      H      0.461010000000     0.259100000000     0.342340000000     0.0420857  
H20      H      0.537700000000     0.202620000000     0.171920000000     0.0397404  
H21      H      0.471140000000     0.117330000000     0.201570000000     0.0338509  
H22      H      0.475290000000     0.340740000000     0.260680000000     0.0398081  
H23      H      0.532370000000     0.251310000000     0.299440000000     0.0390068  
H24      H      0.428770000000     0.782060000000     0.187570000000     0.0440717  
H25      H      0.421440000000     0.691900000000     0.275570000000     0.0372432  
H26      H      0.505140000000     0.616710000000     0.256890000000     0.0412197  
H27      H      0.486120000000     0.842380000000     0.199740000000     0.04796    
H28      H      0.570400000000     0.763220000000     0.191760000000     0.0340636  
H29      H      0.477740000000     0.695090000000     0.337640000000     0.0403214  
H30      H      0.563390000000     0.676110000000     0.264720000000     0.039286   
H31      H      0.424650000000     0.773300000000     0.773930000000     0.0475907  
H32      H      0.416180000000     0.684050000000     0.687090000000     0.0419794  
H33      H      0.505860000000     0.694410000000     0.617300000000     0.041117   
H34      H      0.474340000000     0.758570000000     0.840090000000     0.0471585  
H35      H      0.566190000000     0.754490000000     0.767780000000     0.029981   
H36      H      0.466580000000     0.617520000000     0.695310000000     0.0441368  
H37      H      0.559300000000     0.682170000000     0.680470000000     0.037251   
H38      H      0.420790000000     0.277880000000     0.684970000000     0.0436426  
H39      H      0.406810000000     0.192080000000     0.774420000000     0.0366856  
H40      H      0.489090000000     0.114750000000     0.762510000000     0.0410733  
H41      H      0.476590000000     0.339270000000     0.698750000000     0.0477718  
H42      H      0.561770000000     0.259780000000     0.700300000000     0.0349108  
H43      H      0.458630000000     0.196130000000     0.840130000000     0.0402454  
H44      H      0.548710000000     0.172380000000     0.774290000000     0.0398608  
H45      H      0.676660000000     0.296370000000     0.538130000000     0.0454079  
H46      H      0.761140000000     0.208630000000     0.557880000000     0.0401725  
H47      H      0.754460000000     0.126480000000     0.478560000000     0.0427189  
H48      H      0.691240000000     0.351300000000     0.475920000000     0.0457494  
H49      H      0.686530000000     0.266110000000     0.398250000000     0.0317894  
H50      H      0.829040000000     0.207780000000     0.508900000000     0.0434779  
H51      H      0.765020000000     0.182250000000     0.416840000000     0.0397325  
H52      H      0.792870000000     0.783830000000     0.532490000000     0.0450987  
H53      H      0.703490000000     0.699610000000     0.546360000000     0.0388479  
H54      H      0.629120000000     0.703330000000     0.458320000000     0.0410622  
H55      H      0.852760000000     0.767990000000     0.475530000000     0.0462401  
H56      H      0.774150000000     0.770260000000     0.390950000000     0.0311977  
H57      H      0.706970000000     0.630210000000     0.499480000000     0.0410591  
H58      H      0.691350000000     0.692800000000     0.403480000000     0.0384786  
H59      H      0.108070000000     0.188960000000     0.491810000000     0.0466199  
H60      H      0.244090000000     0.278760000000     0.556610000000     0.0431284  
H61      H      0.331650000000     0.250110000000     0.488740000000     0.0410344  
H62      H      0.154800000000     0.194810000000     0.423450000000     0.0404522  
H63      H      0.192960000000     0.106660000000     0.480200000000     0.0334797  
H64      H      0.250840000000     0.330010000000     0.490880000000     0.0412307  
H65      H      0.281400000000     0.243870000000     0.422020000000     0.0404916  
H66      H      0.195960000000     0.766790000000     0.541990000000     0.0458291  
H67      H      0.286970000000     0.682350000000     0.553240000000     0.0385234  
H68      H      0.267420000000     0.605640000000     0.472670000000     0.0405958  
H69      H      0.208840000000     0.830970000000     0.489370000000     0.0481184  
H70      H      0.211670000000     0.753550000000     0.400320000000     0.0327887  
H71      H      0.349590000000     0.686630000000     0.497790000000     0.0403899  
H72      H      0.280700000000     0.661230000000     0.411500000000     0.037662   
H73      H      0.772200000000     0.428050000000     0.169420000000     0.0459394  
H74      H      0.684690000000     0.411830000000     0.257660000000     0.039012   
H75      H      0.699320000000     0.490050000000     0.338850000000     0.0410179  
H76      H      0.758630000000     0.488980000000     0.112960000000     0.0477443  
H77      H      0.763800000000     0.568420000000     0.197200000000     0.0327397  
H78      H      0.620450000000     0.465560000000     0.257730000000     0.0407437  
H79      H      0.689000000000     0.552790000000     0.284260000000     0.0379654  
H80      H      0.186930000000     0.537960000000     0.183130000000     0.0457427  
H81      H      0.275900000000     0.542190000000     0.270120000000     0.0387915  
H82      H      0.258280000000     0.455610000000     0.342060000000     0.0414827  
H83      H      0.198340000000     0.485920000000     0.118240000000     0.0494875  
H84      H      0.194480000000     0.395240000000     0.192220000000     0.0342069  
H85      H      0.338450000000     0.486720000000     0.263490000000     0.0400905  
H86      H      0.267440000000     0.399340000000     0.280840000000     0.0383376  
H87      H      0.273320000000     0.420180000000     0.678970000000     0.0447531  
H88      H      0.184800000000     0.399600000000     0.762760000000     0.0386722  
H89      H      0.193020000000     0.479460000000     0.843140000000     0.0427928  
H90      H      0.257690000000     0.476560000000     0.618400000000     0.0454279  
H91      H      0.250840000000     0.559960000000     0.700330000000     0.0319584  
H92      H      0.116830000000     0.448380000000     0.760410000000     0.0419558  
H93      H      0.178310000000     0.540710000000     0.787800000000     0.0397998  
H94      H      0.708590000000     0.582280000000     0.679410000000     0.0418647  
H95      H      0.785120000000     0.558890000000     0.768550000000     0.0384898  
H96      H      0.751480000000     0.472380000000     0.834810000000     0.0440635  
H97      H      0.703850000000     0.529950000000     0.614200000000     0.0460125  
H98      H      0.660470000000     0.446520000000     0.678570000000     0.0341218  
H99      H      0.836390000000     0.492590000000     0.760850000000     0.0400713  
H100     H      0.748910000000     0.420140000000     0.769630000000     0.0405408  
H101     H      0.658820000000     0.742670000000     0.875010000000     0.040361   
H102     H      0.754370000000     0.669420000000     0.891630000000     0.0379629  
H103     H      0.833870000000     0.705470000000     0.963460000000     0.0428178  
H104     H      0.610010000000     0.759170000000     0.940580000000     0.0461112  
H105     H      0.684640000000     0.817540000000     0.994790000000     0.0336805  
H106     H      0.755540000000     0.622550000000     0.961560000000     0.0409503  
H107     H      0.778880000000     0.712790000000     0.026080000000     0.0429352  
H108     H      0.781050000000     0.281070000000     0.037350000000     0.0464609  
H109     H      0.694940000000     0.193820000000     0.053930000000     0.0380941  
H110     H      0.617520000000     0.201190000000     0.970440000000     0.0408313  
H111     H      0.841630000000     0.265730000000     0.981030000000     0.046075   
H112     H      0.761830000000     0.263480000000     0.896400000000     0.0311527  
H113     H      0.698260000000     0.125760000000     0.005120000000     0.0415007  
H114     H      0.675860000000     0.188490000000     0.911770000000     0.0388291  
H115     H      0.168420000000     0.686580000000     0.043630000000     0.0467112  
H116     H      0.255050000000     0.773040000000     0.059560000000     0.0377482  
H117     H      0.335590000000     0.760110000000     0.980350000000     0.0416278  
H118     H      0.110310000000     0.699970000000     0.984360000000     0.0476553  
H119     H      0.192840000000     0.696010000000     0.902680000000     0.0328874  
H120     H      0.254950000000     0.838600000000     0.007280000000     0.0410197  
H121     H      0.280500000000     0.771460000000     0.918310000000     0.0400678  
H122     H      0.177300000000     0.271720000000     0.933980000000     0.0449996  
H123     H      0.264810000000     0.181030000000     0.924820000000     0.0390878  
H124     H      0.341770000000     0.200020000000     0.006320000000     0.0425789  
H125     H      0.116900000000     0.260300000000     0.991280000000     0.0471064  
H126     H      0.197060000000     0.264380000000     0.075670000000     0.0326156  
H127     H      0.261170000000     0.119550000000     0.981800000000     0.0411257  
H128     H      0.284370000000     0.191930000000     0.066550000000     0.0402254  
H129     H      0.782160000000     0.932620000000     0.672120000000     0.0461608  
H130     H      0.695830000000     0.916530000000     0.760920000000     0.0421846  
H131     H      0.702380000000     0.001220000000     0.838100000000     0.0428384  
H132     H      0.766660000000     0.991120000000     0.613560000000     0.0467722  
H133     H      0.768180000000     0.073450000000     0.694720000000     0.0318493  
H134     H      0.628100000000     0.965750000000     0.758160000000     0.0437783  
H135     H      0.691820000000     0.058940000000     0.778360000000     0.038482   
H136     H      0.124180000000     0.983890000000     0.706980000000     0.0479282  
H137     H      0.255670000000     0.913710000000     0.810420000000     0.0410487  
H138     H      0.346780000000     0.966320000000     0.769410000000     0.0406587  
H139     H      0.180380000000     0.045050000000     0.710970000000     0.0456757  
H140     H      0.206720000000     0.974850000000     0.627060000000     0.0342906  
H141     H      0.264280000000     0.986720000000     0.850190000000     0.0397031  
H142     H      0.305450000000     0.038260000000     0.758650000000     0.0387682  
H143     H      0.230180000000     0.872220000000     0.184530000000     0.0423541  
H144     H      0.154670000000     0.896800000000     0.273040000000     0.0387043  
H145     H      0.197300000000     0.968230000000     0.348980000000     0.0422956  
H146     H      0.244730000000     0.929030000000     0.124940000000     0.046511   
H147     H      0.299110000000     0.998250000000     0.194400000000     0.0357684  
H148     H      0.112020000000     0.969290000000     0.270200000000     0.0398976  
H149     H      0.204030000000     0.029820000000     0.292870000000     0.0421808  
H150     H      0.768820000000     0.040410000000     0.274100000000     0.0467873  
H151     H      0.678120000000     0.052250000000     0.190330000000     0.0377055  
H152     H      0.692550000000     0.969310000000     0.114110000000     0.0426978  
H153     H      0.756270000000     0.987680000000     0.338350000000     0.0489054  
H154     H      0.751790000000     0.898940000000     0.261060000000     0.0342247  
H155     H      0.613620000000     0.999020000000     0.195540000000     0.0390424  
H156     H      0.680620000000     0.910010000000     0.172070000000     0.03994    
H157     H      0.047610000000     0.190210000000     0.697920000000     0.0468878  
H158     H      0.046160000000     0.276530000000     0.786070000000     0.0418562  
H159     H      0.959680000000     0.346620000000     0.763360000000     0.0413908  
H160     H      0.998150000000     0.123160000000     0.707470000000     0.047482   
H161     H      0.904650000000     0.193800000000     0.699580000000     0.0326843  
H162     H      0.988270000000     0.269390000000     0.846400000000     0.0408078  
H163     H      0.903930000000     0.285020000000     0.771790000000     0.0367859  
H164     H      0.074820000000     0.752780000000     0.677700000000     0.0417206  
H165     H      0.052470000000     0.674610000000     0.767770000000     0.0374975  
H166     H      0.967110000000     0.708400000000     0.835740000000     0.0427056  
H167     H      0.020160000000     0.758400000000     0.614510000000     0.0469271  
H168     H      0.939520000000     0.801360000000     0.681980000000     0.0358733  
H169     H      0.985520000000     0.624270000000     0.760470000000     0.0389154  
H170     H      0.914520000000     0.712890000000     0.771010000000     0.041944   
H171     H      0.042900000000     0.676350000000     0.185090000000     0.048095   
H172     H      0.051780000000     0.763840000000     0.271940000000     0.0407006  
H173     H      0.966760000000     0.838510000000     0.259060000000     0.0442807  
H174     H      0.987820000000     0.614180000000     0.197570000000     0.0493321  
H175     H      0.900750000000     0.691110000000     0.192730000000     0.0319279  
H176     H      0.999000000000     0.759720000000     0.337000000000     0.0405564  
H177     H      0.909310000000     0.778550000000     0.268890000000     0.0390721  
H178     H      0.026320000000     0.272700000000     0.189480000000     0.0463017  
H179     H      0.031170000000     0.182130000000     0.276770000000     0.0392075  
H180     H      0.943620000000     0.199080000000     0.347600000000     0.0417918  
H181     H      0.975120000000     0.260180000000     0.124050000000     0.0477395  
H182     H      0.884160000000     0.260500000000     0.197570000000     0.0343756  
H183     H      0.976490000000     0.119060000000     0.268940000000     0.0417985  
H184     H      0.888410000000     0.189280000000     0.285620000000     0.0395428  
N1       N      0.465630000000     0.181440000000     0.278750000000    -0.169952   
N2       N      0.473580000000     0.276480000000     0.183320000000    -0.163941   
N3       N      0.510390000000     0.684880000000     0.181080000000    -0.167609   
N4       N      0.477210000000     0.773510000000     0.273440000000    -0.164137   
N5       N      0.513570000000     0.770270000000     0.685020000000    -0.168248   
N6       N      0.466410000000     0.683470000000     0.772360000000    -0.163244   
N7       N      0.502960000000     0.181070000000     0.686550000000    -0.166895   
N8       N      0.463920000000     0.272780000000     0.773940000000    -0.16398    
N9       N      0.677160000000     0.190830000000     0.462270000000    -0.166831   
N10      N      0.764560000000     0.284880000000     0.494830000000    -0.163969   
N11      N      0.694480000000     0.781200000000     0.449070000000    -0.167639   
N12      N      0.784950000000     0.694700000000     0.490370000000    -0.164447   
N13      N      0.268990000000     0.171180000000     0.488000000000    -0.170057   
N14      N      0.172810000000     0.265920000000     0.489180000000    -0.163368   
N15      N      0.194090000000     0.674470000000     0.457880000000    -0.167147   
N16      N      0.284180000000     0.763680000000     0.497160000000    -0.163331   
N17      N      0.775110000000     0.504910000000     0.272660000000    -0.166528   
N18      N      0.684980000000     0.473150000000     0.180040000000    -0.163094   
N19      N      0.182480000000     0.450200000000     0.274130000000    -0.166987   
N20      N      0.273350000000     0.489960000000     0.186140000000    -0.163484   
N21      N      0.267830000000     0.499340000000     0.777170000000    -0.16739    
N22      N      0.182870000000     0.459830000000     0.684290000000    -0.164392   
N23      N      0.675890000000     0.487040000000     0.768130000000    -0.166728   
N24      N      0.775070000000     0.510530000000     0.682840000000    -0.164862   
N25      N      0.769020000000     0.782780000000     0.956650000000    -0.166351   
N26      N      0.677660000000     0.685630000000     0.951680000000    -0.164278   
N27      N      0.683240000000     0.277510000000     0.955350000000    -0.167352   
N28      N      0.775070000000     0.191310000000     0.996100000000    -0.164806   
N29      N      0.269370000000     0.684350000000     0.964760000000    -0.166726   
N30      N      0.177520000000     0.773970000000     0.998300000000    -0.164701   
N31      N      0.274390000000     0.276010000000     0.014530000000    -0.166679   
N32      N      0.184210000000     0.185240000000     0.981790000000    -0.16403    
N33      N      0.779650000000     0.013000000000     0.772680000000    -0.168227   
N34      N      0.693140000000     0.974490000000     0.680720000000    -0.163867   
N35      N      0.283600000000     0.969000000000     0.691550000000    -0.170091   
N36      N      0.187740000000     0.981150000000     0.785640000000    -0.163416   
N37      N      0.272490000000     0.959310000000     0.281870000000    -0.166612   
N38      N      0.173810000000     0.951390000000     0.192890000000    -0.164673   
N39      N      0.767610000000     0.956740000000     0.181740000000    -0.168277   
N40      N      0.680280000000     0.996160000000     0.271780000000    -0.165657   
N41      N      0.957290000000     0.277390000000     0.688410000000    -0.167278   
N42      N      0.995690000000     0.191660000000     0.782150000000    -0.164567   
N43      N      0.982540000000     0.784850000000     0.770090000000    -0.166064   
N44      N      0.003320000000     0.686130000000     0.682730000000    -0.164019   
N45      N      0.957600000000     0.771870000000     0.182300000000    -0.166336   
N46      N      0.996290000000     0.681980000000     0.272090000000    -0.164254   
N47      N      0.938850000000     0.274640000000     0.279260000000    -0.167745   
N48      N      0.980360000000     0.184880000000     0.191970000000    -0.164038   
O1       O      0.979500000000     0.157500000000     0.089030000000    -0.380409   
O2       O      0.967240000000     0.803430000000     0.079420000000    -0.371948   
O3       O      0.870110000000     0.975170000000     0.156120000000    -0.375775   
O4       O      0.072390000000     0.969560000000     0.164720000000    -0.377279   
O5       O      0.149260000000     0.969430000000     0.090690000000    -0.378285   
O6       O      0.796470000000     0.973130000000     0.079550000000    -0.376198   
O7       O      0.967400000000     0.876030000000     0.157120000000    -0.369662   
O8       O      0.975910000000     0.081230000000     0.163740000000    -0.375631   
O9       O      0.036480000000     0.917110000000     0.046230000000    -0.504124   
O10      O      0.912790000000     0.046440000000     0.047010000000    -0.503384   
O11      O      0.911610000000     0.919640000000     0.042040000000    -0.650393   
O12      O      0.040130000000     0.044070000000     0.050500000000    -0.64617    
O13      O      0.979860000000     0.808900000000     0.875070000000    -0.377193   
O14      O      0.985990000000     0.164120000000     0.885760000000    -0.373781   
O15      O      0.799010000000     0.885290000000     0.968610000000    -0.37374    
O16      O      0.152460000000     0.877850000000     0.992360000000    -0.373919   
O17      O      0.156460000000     0.081620000000     0.985950000000    -0.376729   
O18      O      0.801080000000     0.087710000000     0.990490000000    -0.376866   
O19      O      0.881380000000     0.996450000000     0.803570000000    -0.375404   
O20      O      0.084190000000     0.988060000000     0.810510000000    -0.373913   
O21      O      0.803850000000     0.997660000000     0.876220000000    -0.378282   
O22      O      0.157170000000     0.977140000000     0.887700000000    -0.380853   
O23      O      0.872510000000     0.808210000000     0.968690000000    -0.376768   
O24      O      0.877700000000     0.161970000000     0.988690000000    -0.377503   
O25      O      0.081540000000     0.157610000000     0.986140000000    -0.377079   
O26      O      0.075600000000     0.804060000000     0.986900000000    -0.375073   
O27      O      0.978370000000     0.887220000000     0.803230000000    -0.376151   
O28      O      0.988800000000     0.089050000000     0.809930000000    -0.375929   
O29      O      0.043070000000     0.046500000000     0.924320000000    -0.507627   
O30      O      0.914000000000     0.922820000000     0.916180000000    -0.506675   
O31      O      0.916490000000     0.049950000000     0.920030000000    -0.655562   
O32      O      0.041600000000     0.919970000000     0.919810000000    -0.653075   
O33      O      0.956770000000     0.302170000000     0.381430000000    -0.37698    
O34      O      0.990440000000     0.656190000000     0.376020000000    -0.374351   
O35      O      0.877690000000     0.489690000000     0.301980000000    -0.370627   
O36      O      0.079900000000     0.466690000000     0.303020000000    -0.372615   
O37      O      0.155470000000     0.462140000000     0.377550000000    -0.376005   
O38      O      0.801930000000     0.493420000000     0.376390000000    -0.376672   
O39      O      0.988200000000     0.579460000000     0.301690000000    -0.373751   
O40      O      0.961860000000     0.376550000000     0.305620000000    -0.372193   
O41      O      0.045000000000     0.539140000000     0.415620000000    -0.508417   
O42      O      0.911940000000     0.419070000000     0.417100000000    -0.508566   
O43      O      0.919020000000     0.546380000000     0.415850000000    -0.652709   
O44      O      0.038310000000     0.412090000000     0.417120000000    -0.650588   
O45      O      0.994510000000     0.657420000000     0.580090000000    -0.378319   
O46      O      0.968240000000     0.305630000000     0.584880000000    -0.37261    
O47      O      0.808050000000     0.590780000000     0.484450000000    -0.376365   
O48      O      0.162440000000     0.572140000000     0.470170000000    -0.375932   
O49      O      0.148410000000     0.369470000000     0.487950000000    -0.377192   
O50      O      0.796120000000     0.386900000000     0.483670000000    -0.377494   
O51      O      0.877390000000     0.493690000000     0.657050000000    -0.375905   
O52      O      0.079820000000     0.467980000000     0.657430000000    -0.375506   
O53      O      0.802900000000     0.497840000000     0.580650000000    -0.375915   
O54      O      0.154950000000     0.470270000000     0.581620000000    -0.377813   
O55      O      0.886850000000     0.662740000000     0.483030000000    -0.377014   
O56      O      0.868240000000     0.308370000000     0.488810000000    -0.375392   
O57      O      0.070590000000     0.296740000000     0.480930000000    -0.377757   
O58      O      0.090330000000     0.650050000000     0.471600000000    -0.372086   
O59      O      0.988320000000     0.583350000000     0.656880000000    -0.377952   
O60      O      0.967820000000     0.380700000000     0.659960000000    -0.376578   
O61      O      0.038500000000     0.414530000000     0.543760000000    -0.504465   
O62      O      0.919490000000     0.546560000000     0.541910000000    -0.505007   
O63      O      0.911910000000     0.421340000000     0.544150000000    -0.651305   
O64      O      0.046050000000     0.540710000000     0.542970000000    -0.648066   
O65      O      0.654290000000     0.987350000000     0.374660000000    -0.377695   
O66      O      0.301740000000     0.966030000000     0.385320000000    -0.37679    
O67      O      0.480860000000     0.875780000000     0.303700000000    -0.37858    
O68      O      0.466700000000     0.078130000000     0.305910000000    -0.37522    
O69      O      0.473290000000     0.153350000000     0.381470000000    -0.377017   
O70      O      0.481190000000     0.798710000000     0.377700000000    -0.376169   
O71      O      0.375370000000     0.971730000000     0.308710000000    -0.374557   
O72      O      0.577570000000     0.986390000000     0.300520000000    -0.378715   
O73      O      0.414190000000     0.037010000000     0.420700000000    -0.50841    
O74      O      0.545680000000     0.915690000000     0.416390000000    -0.504551   
O75      O      0.419620000000     0.909690000000     0.419840000000    -0.654751   
O76      O      0.540340000000     0.042080000000     0.417030000000    -0.659144   
O77      O      0.309830000000     0.964690000000     0.588390000000    -0.37752    
O78      O      0.662670000000     0.980570000000     0.578140000000    -0.379905   
O79      O      0.387570000000     0.792570000000     0.490460000000    -0.373497   
O80      O      0.372780000000     0.147140000000     0.482770000000    -0.379926   
O81      O      0.575320000000     0.158000000000     0.474450000000    -0.370859   
O82      O      0.591220000000     0.804410000000     0.465780000000    -0.375312   
O83      O      0.495200000000     0.872750000000     0.657270000000    -0.371887   
O84      O      0.493670000000     0.077410000000     0.659220000000    -0.372431   
O85      O      0.500700000000     0.797710000000     0.581980000000    -0.378891   
O86      O      0.485700000000     0.152360000000     0.584150000000    -0.375333   
O87      O      0.310850000000     0.866660000000     0.490170000000    -0.376615   
O88      O      0.662850000000     0.882890000000     0.465900000000    -0.373554   
O89      O      0.653780000000     0.086470000000     0.473400000000    -0.374163   
O90      O      0.300390000000     0.068950000000     0.489630000000    -0.378408   
O91      O      0.386340000000     0.974180000000     0.662270000000    -0.380955   
O92      O      0.589530000000     0.974900000000     0.655660000000    -0.375718   
O93      O      0.545030000000     0.041890000000     0.543880000000    -0.508273   
O94      O      0.424030000000     0.909240000000     0.546640000000    -0.505192   
O95      O      0.549890000000     0.914620000000     0.541870000000    -0.65033    
O96      O      0.418390000000     0.036390000000     0.547850000000    -0.653523   
O97      O      0.376210000000     0.302890000000     0.994660000000    -0.37449    
O98      O      0.373020000000     0.657670000000     0.974740000000    -0.377188   
O99      O      0.301270000000     0.484590000000     0.083260000000    -0.375391   
O100     O      0.296280000000     0.485290000000     0.880020000000    -0.374212   
O101     O      0.370670000000     0.485470000000     0.804220000000    -0.375229   
O102     O      0.377070000000     0.486210000000     0.158410000000    -0.374837   
O103     O      0.299210000000     0.581400000000     0.975650000000    -0.371869   
O104     O      0.301120000000     0.378010000000     0.992390000000    -0.376236   
O105     O      0.411990000000     0.542100000000     0.916430000000    -0.511449   
O106     O      0.415530000000     0.417700000000     0.042140000000    -0.506497   
O107     O      0.413150000000     0.544800000000     0.043490000000    -0.649461   
O108     O      0.410390000000     0.414900000000     0.916260000000    -0.650541   
O109     O      0.575860000000     0.657630000000     0.966320000000    -0.377393   
O110     O      0.579750000000     0.303740000000     0.968250000000    -0.374769   
O111     O      0.492420000000     0.582600000000     0.154510000000    -0.377615   
O112     O      0.469410000000     0.579850000000     0.799860000000    -0.370589   
O113     O      0.470060000000     0.375920000000     0.801890000000    -0.377923   
O114     O      0.471650000000     0.379270000000     0.154850000000    -0.377145   
O115     O      0.654840000000     0.480170000000     0.077320000000    -0.375024   
O116     O      0.650450000000     0.483550000000     0.872520000000    -0.372966   
O117     O      0.581070000000     0.475380000000     0.154400000000    -0.37486    
O118     O      0.573370000000     0.479130000000     0.799470000000    -0.3753     
O119     O      0.488340000000     0.657330000000     0.079020000000    -0.375413   
O120     O      0.482210000000     0.303330000000     0.080330000000    -0.378217   
O121     O      0.468410000000     0.300470000000     0.877470000000    -0.379001   
O122     O      0.470450000000     0.655480000000     0.875300000000    -0.374475   
O123     O      0.652310000000     0.583260000000     0.970080000000    -0.376447   
O124     O      0.653460000000     0.380200000000     0.968030000000    -0.375272   
O125     O      0.538650000000     0.416510000000     0.913850000000    -0.508343   
O126     O      0.540150000000     0.544350000000     0.040110000000    -0.506372   
O127     O      0.540890000000     0.417200000000     0.040670000000    -0.646269   
O128     O      0.536560000000     0.542720000000     0.913470000000    -0.653191   
S1       S      0.378940000000     0.164320000000     0.199910000000    -0.00827261 
S2       S      0.528520000000     0.775720000000     0.098330000000    -0.00888184 
S3       S      0.534680000000     0.852170000000     0.775920000000    -0.0155302  
S4       S      0.527960000000     0.270090000000     0.603530000000    -0.00523329 
S5       S      0.592010000000     0.277840000000     0.437520000000    -0.0122822  
S6       S      0.782420000000     0.866140000000     0.427970000000    -0.0111332  
S7       S      0.194530000000     0.145140000000     0.576490000000    -0.0154838  
S8       S      0.114930000000     0.767100000000     0.432520000000    -0.0100342  
S9       S      0.858130000000     0.529440000000     0.183540000000    -0.00932874 
S10      S      0.099990000000     0.435040000000     0.182460000000    -0.00776987 
S11      S      0.349100000000     0.531940000000     0.688850000000    -0.00969616 
S12      S      0.594770000000     0.527420000000     0.684310000000    -0.0155408  
S13      S      0.692900000000     0.858180000000     0.899070000000    -0.0122775  
S14      S      0.771910000000     0.360620000000     0.929360000000    -0.0144702  
S15      S      0.179820000000     0.601220000000     0.941370000000    -0.00891657 
S16      S      0.184630000000     0.358950000000     0.036560000000    -0.00846493 
S17      S      0.864090000000     0.037300000000     0.684950000000    -0.0100002  
S18      S      0.202340000000     0.884030000000     0.676880000000    -0.00961052 
S19      S      0.348450000000     0.906420000000     0.201800000000    -0.015626   
S20      S      0.849050000000     0.930430000000     0.271980000000    -0.0130259  
S21      S      0.948920000000     0.183540000000     0.606830000000    -0.0107083  
S22      S      0.020480000000     0.866920000000     0.685780000000    -0.00658544 
S23      S      0.941540000000     0.681420000000     0.098380000000    -0.0119381  
S24      S      0.919870000000     0.356620000000     0.187950000000    -0.00463898 
Zr1      Zr     0.973460000000     0.980070000000     0.109370000000     1.42139    
Zr2      Zr     0.974900000000     0.857030000000     0.978890000000     1.42455    
Zr3      Zr     0.979060000000     0.109170000000     0.986460000000     1.42172    
Zr4      Zr     0.851060000000     0.985860000000     0.979850000000     1.42253    
Zr5      Zr     0.102860000000     0.980430000000     0.987410000000     1.42513    
Zr6      Zr     0.980710000000     0.986710000000     0.858120000000     1.43192    
Zr7      Zr     0.978450000000     0.478470000000     0.354000000000     1.42757    
Zr8      Zr     0.985860000000     0.605810000000     0.478670000000     1.42549    
Zr9      Zr     0.971810000000     0.354290000000     0.481820000000     1.42699    
Zr10     Zr     0.852860000000     0.486530000000     0.479130000000     1.4263     
Zr11     Zr     0.104440000000     0.473600000000     0.479370000000     1.42455    
Zr12     Zr     0.978850000000     0.481290000000     0.606420000000     1.42385    
Zr13     Zr     0.478170000000     0.976660000000     0.356070000000     1.43446    
Zr14     Zr     0.357040000000     0.970300000000     0.485510000000     1.42881    
Zr15     Zr     0.607650000000     0.981700000000     0.477920000000     1.43029    
Zr16     Zr     0.487160000000     0.848910000000     0.480570000000     1.42091    
Zr17     Zr     0.476980000000     0.101490000000     0.482630000000     1.43582    
Zr18     Zr     0.486540000000     0.975200000000     0.607680000000     1.42285    
Zr19     Zr     0.350460000000     0.480010000000     0.980850000000     1.42929    
Zr20     Zr     0.475140000000     0.606200000000     0.977770000000     1.42958    
Zr21     Zr     0.477030000000     0.353630000000     0.978370000000     1.42004    
Zr22     Zr     0.478390000000     0.481160000000     0.104570000000     1.42252    
Zr23     Zr     0.472900000000     0.478310000000     0.852520000000     1.43457    
Zr24     Zr     0.601700000000     0.481080000000     0.975830000000     1.42588    


