data_structure

_audit_creation_method RASPA-1.0
_audit_creation_date 2023-5-19
_audit_author_name 'Poobodin Mano'

_cell_length_a    33.7667
_cell_length_b    33.7296
_cell_length_c    33.732
_cell_angle_alpha 90
_cell_angle_beta  90
_cell_angle_gamma 90
_cell_volume      38418.6

_symmetry_cell_setting          triclinic
_symmetry_space_group_name_Hall 'P 1'
_symmetry_space_group_name_H-M  'P 1'
_symmetry_Int_Tables_number     1

_symmetry_equiv_pos_as_xyz 'x,y,z'

loop_
_atom_site_label
_atom_site_type_symbol
_atom_site_fract_x
_atom_site_fract_y
_atom_site_fract_z
_atom_site_charge
C1       C      0.986910000000     0.083410000000     0.088250000000     0.397028   
C2       C      0.990590000000     0.881370000000     0.083710000000     0.399212   
C3       C      0.886090000000     0.983790000000     0.088990000000     0.397626   
C4       C      0.088280000000     0.980720000000     0.082750000000     0.399261   
C5       C      0.981940000000     0.885210000000     0.881370000000     0.397126   
C6       C      0.981920000000     0.088040000000     0.885260000000     0.396737   
C7       C      0.884530000000     0.881630000000     0.985800000000     0.395861   
C8       C      0.087390000000     0.885360000000     0.979060000000     0.397291   
C9       C      0.083920000000     0.087770000000     0.985250000000     0.398097   
C10      C      0.881890000000     0.085160000000     0.991270000000     0.397436   
C11      C      0.880620000000     0.984770000000     0.885480000000     0.396118   
C12      C      0.083180000000     0.990570000000     0.880830000000     0.398685   
C13      C      0.986770000000     0.381080000000     0.385650000000     0.398225   
C14      C      0.982180000000     0.583150000000     0.379870000000     0.39818    
C15      C      0.883140000000     0.477960000000     0.382510000000     0.397178   
C16      C      0.085470000000     0.488640000000     0.383420000000     0.397993   
C17      C      0.976180000000     0.589140000000     0.582280000000     0.398294   
C18      C      0.989660000000     0.386830000000     0.588690000000     0.397471   
C19      C      0.878090000000     0.581720000000     0.480470000000     0.397334   
C20      C      0.080470000000     0.590740000000     0.480600000000     0.398728   
C21      C      0.089760000000     0.388140000000     0.488700000000     0.39772    
C22      C      0.887100000000     0.378960000000     0.484830000000     0.397353   
C23      C      0.881910000000     0.484560000000     0.584640000000     0.398962   
C24      C      0.083690000000     0.492570000000     0.586740000000     0.396826   
C25      C      0.586930000000     0.980960000000     0.385220000000     0.396453   
C26      C      0.384590000000     0.984540000000     0.380940000000     0.397732   
C27      C      0.487210000000     0.880800000000     0.385400000000     0.399714   
C28      C      0.483810000000     0.083330000000     0.380600000000     0.399211   
C29      C      0.379830000000     0.986180000000     0.583210000000     0.397461   
C30      C      0.582260000000     0.983920000000     0.588590000000     0.39635    
C31      C      0.381410000000     0.884430000000     0.484930000000     0.397787   
C32      C      0.383630000000     0.087020000000     0.480490000000     0.396758   
C33      C      0.585780000000     0.085070000000     0.485920000000     0.397311   
C34      C      0.583780000000     0.882290000000     0.486670000000     0.397948   
C35      C      0.480310000000     0.885020000000     0.587330000000     0.397403   
C36      C      0.485120000000     0.088130000000     0.583380000000     0.398575   
C37      C      0.382900000000     0.383030000000     0.986180000000     0.398187   
C38      C      0.382380000000     0.585650000000     0.985530000000     0.397437   
C39      C      0.384630000000     0.482910000000     0.087810000000     0.396476   
C40      C      0.380980000000     0.485540000000     0.884600000000     0.396518   
C41      C      0.584710000000     0.586240000000     0.983890000000     0.396506   
C42      C      0.584920000000     0.383170000000     0.981680000000     0.396212   
C43      C      0.485840000000     0.585620000000     0.086030000000     0.398437   
C44      C      0.478980000000     0.586650000000     0.883980000000     0.398865   
C45      C      0.482590000000     0.383530000000     0.883070000000     0.397726   
C46      C      0.485410000000     0.383120000000     0.085590000000     0.397721   
C47      C      0.587340000000     0.486590000000     0.083790000000     0.398376   
C48      C      0.583200000000     0.482570000000     0.881550000000     0.400959   
C49      C      0.476860000000     0.133470000000     0.282520000000    -0.103603   
C50      C      0.483120000000     0.314870000000     0.104200000000     0.0718061  
C51      C      0.489200000000     0.364340000000     0.153710000000     0.0714756  
C52      C      0.483440000000     0.285210000000     0.133070000000    -0.0929024  
C53      C      0.506750000000     0.227760000000     0.197880000000    -0.0358768  
C54      C      0.506420000000     0.198170000000     0.226840000000    -0.0348746  
C55      C      0.487250000000     0.264040000000     0.204390000000    -0.00655697 
C56      C      0.489880000000     0.335420000000     0.183300000000    -0.0931518  
C57      C      0.486850000000     0.204250000000     0.263080000000    -0.00898646 
C58      C      0.492390000000     0.180770000000     0.333230000000    -0.09591    
C59      C      0.467780000000     0.240630000000     0.269870000000    -0.0347275  
C60      C      0.491060000000     0.150440000000     0.361250000000     0.0709574  
C61      C      0.474940000000     0.103340000000     0.311190000000     0.101607   
C62      C      0.467840000000     0.270140000000     0.240800000000    -0.0358093  
C63      C      0.486910000000     0.295250000000     0.173220000000     0.0491735  
C64      C      0.485660000000     0.172390000000     0.293360000000     0.0544687  
C65      C      0.495000000000     0.782680000000     0.335500000000    -0.104163   
C66      C      0.483600000000     0.653850000000     0.104660000000     0.0718285  
C67      C      0.488800000000     0.604300000000     0.154210000000     0.0719034  
C68      C      0.483390000000     0.683480000000     0.133540000000    -0.093024   
C69      C      0.505870000000     0.740620000000     0.199050000000    -0.0358321  
C70      C      0.505920000000     0.769710000000     0.228530000000    -0.0347366  
C71      C      0.485840000000     0.704510000000     0.204900000000    -0.00661422 
C72      C      0.488920000000     0.633200000000     0.183820000000    -0.09314    
C73      C      0.486190000000     0.763220000000     0.264600000000    -0.00914823 
C74      C      0.480980000000     0.833450000000     0.287800000000    -0.0962241  
C75      C      0.466020000000     0.727280000000     0.270440000000    -0.0349466  
C76      C      0.481790000000     0.861490000000     0.318120000000     0.070875   
C77      C      0.496380000000     0.811350000000     0.365640000000     0.10202    
C78      C      0.465730000000     0.698300000000     0.240880000000    -0.0359385  
C79      C      0.486060000000     0.673370000000     0.173710000000     0.0493111  
C80      C      0.487150000000     0.793550000000     0.296390000000     0.0545885  
C81      C      0.468700000000     0.684800000000     0.834640000000    -0.1036     
C82      C      0.482810000000     0.816860000000     0.605960000000     0.0717711  
C83      C      0.476660000000     0.866250000000     0.655590000000     0.0715977  
C84      C      0.482720000000     0.787120000000     0.634670000000    -0.0934271  
C85      C      0.505730000000     0.734130000000     0.704220000000    -0.0362263  
C86      C      0.504980000000     0.704460000000     0.733160000000    -0.0345808  
C87      C      0.478470000000     0.765600000000     0.705450000000    -0.00660516 
C88      C      0.476030000000     0.837130000000     0.685080000000    -0.0928603  
C89      C      0.476760000000     0.705470000000     0.763800000000    -0.00882609 
C90      C      0.483830000000     0.634800000000     0.786530000000    -0.0949291  
C91      C      0.449160000000     0.736750000000     0.764600000000    -0.0345846  
C92      C      0.483730000000     0.606440000000     0.816670000000     0.0702898  
C93      C      0.467980000000     0.655870000000     0.864500000000     0.101885   
C94      C      0.450170000000     0.766580000000     0.735900000000    -0.0361651  
C95      C      0.479190000000     0.797040000000     0.674730000000     0.0492947  
C96      C      0.476560000000     0.674570000000     0.795330000000     0.0539371  
C97      C      0.490920000000     0.186620000000     0.633340000000    -0.103457   
C98      C      0.482040000000     0.315170000000     0.864660000000     0.0716342  
C99      C      0.482880000000     0.364730000000     0.814830000000     0.0719316  
C100     C      0.482290000000     0.285440000000     0.835870000000    -0.0935157  
C101     C      0.510800000000     0.267500000000     0.732720000000    -0.0360734  
C102     C      0.511680000000     0.238400000000     0.703310000000    -0.0346339  
C103     C      0.484370000000     0.264430000000     0.764700000000    -0.00678624 
C104     C      0.483590000000     0.335730000000     0.785310000000    -0.0932802  
C105     C      0.485840000000     0.205710000000     0.704960000000    -0.00884342 
C106     C      0.481430000000     0.135250000000     0.681410000000    -0.095223   
C107     C      0.459570000000     0.202530000000     0.737170000000    -0.034673   
C108     C      0.481590000000     0.107350000000     0.650910000000     0.0707172  
C109     C      0.491610000000     0.158150000000     0.602970000000     0.101555   
C110     C      0.458960000000     0.231510000000     0.766810000000    -0.0362442  
C111     C      0.483330000000     0.295570000000     0.795690000000     0.0494177  
C112     C      0.485970000000     0.175420000000     0.672860000000     0.0541599  
C113     C      0.837740000000     0.280040000000     0.481190000000    -0.103537   
C114     C      0.605000000000     0.153220000000     0.487590000000     0.0712451  
C115     C      0.654150000000     0.103090000000     0.486460000000     0.0711801  
C116     C      0.634170000000     0.182590000000     0.488310000000    -0.0925306  
C117     C      0.701160000000     0.238330000000     0.466550000000    -0.0360317  
C118     C      0.731000000000     0.267060000000     0.466380000000    -0.0347415  
C119     C      0.705850000000     0.202930000000     0.488120000000    -0.00652238 
C120     C      0.684040000000     0.131700000000     0.486920000000    -0.0929248  
C121     C      0.766320000000     0.260990000000     0.487550000000    -0.00901826 
C122     C      0.789610000000     0.331320000000     0.490790000000    -0.0957646  
C123     C      0.771020000000     0.225720000000     0.509200000000    -0.0350197  
C124     C      0.819900000000     0.359340000000     0.489770000000     0.0704992  
C125     C      0.867950000000     0.308700000000     0.479640000000     0.101122   
C126     C      0.741100000000     0.197090000000     0.509600000000    -0.0359964  
C127     C      0.674300000000     0.172060000000     0.487870000000     0.0487354  
C128     C      0.798320000000     0.291190000000     0.486730000000     0.0540517  
C129     C      0.778960000000     0.630370000000     0.476310000000    -0.1033     
C130     C      0.651750000000     0.862780000000     0.487940000000     0.0718367  
C131     C      0.601510000000     0.813780000000     0.484890000000     0.0718526  
C132     C      0.681000000000     0.833500000000     0.487520000000    -0.0931082  
C133     C      0.733860000000     0.763610000000     0.509770000000    -0.0361133  
C134     C      0.762620000000     0.733820000000     0.508850000000    -0.0345988  
C135     C      0.700960000000     0.762000000000     0.484320000000    -0.00658225 
C136     C      0.630010000000     0.783800000000     0.484090000000    -0.0930026  
C137     C      0.759240000000     0.701850000000     0.482290000000    -0.00881136 
C138     C      0.829840000000     0.679050000000     0.485120000000    -0.0951383  
C139     C      0.726410000000     0.700460000000     0.456640000000    -0.0346501  
C140     C      0.858070000000     0.648950000000     0.484200000000     0.0709506  
C141     C      0.807800000000     0.600360000000     0.474960000000     0.10148    
C142     C      0.697550000000     0.730110000000     0.457750000000    -0.036053   
C143     C      0.670280000000     0.793490000000     0.485390000000     0.0493487  
C144     C      0.789750000000     0.670020000000     0.481380000000     0.0540646  
C145     C      0.188760000000     0.339270000000     0.493440000000    -0.103435   
C146     C      0.315700000000     0.106700000000     0.478150000000     0.0715286  
C147     C      0.366000000000     0.155540000000     0.482460000000     0.0716444  
C148     C      0.286510000000     0.136050000000     0.478600000000    -0.0929655  
C149     C      0.233950000000     0.206610000000     0.457240000000    -0.0360906  
C150     C      0.205280000000     0.236480000000     0.458560000000    -0.0345188  
C151     C      0.266670000000     0.207580000000     0.482950000000    -0.00648529 
C152     C      0.337550000000     0.185570000000     0.483300000000    -0.0928877  
C153     C      0.208540000000     0.267900000000     0.485820000000    -0.00887817 
C154     C      0.137980000000     0.290850000000     0.482830000000    -0.0954293  
C155     C      0.241200000000     0.268640000000     0.511710000000    -0.0344787  
C156     C      0.109760000000     0.320960000000     0.484060000000     0.0707689  
C157     C      0.159890000000     0.369270000000     0.495130000000     0.101706   
C158     C      0.269980000000     0.238920000000     0.510190000000    -0.0361731  
C159     C      0.297280000000     0.176010000000     0.481480000000     0.0492158  
C160     C      0.178040000000     0.299750000000     0.487240000000     0.0540838  
C161     C      0.129700000000     0.689460000000     0.473860000000    -0.103285   
C162     C      0.361860000000     0.816460000000     0.488080000000     0.0717302  
C163     C      0.313060000000     0.866610000000     0.482110000000     0.0716559  
C164     C      0.332590000000     0.787210000000     0.488100000000    -0.0927512  
C165     C      0.266760000000     0.731030000000     0.464230000000    -0.0358775  
C166     C      0.236950000000     0.702310000000     0.463510000000    -0.0346623  
C167     C      0.261020000000     0.767090000000     0.484380000000    -0.00648747 
C168     C      0.283100000000     0.838120000000     0.481840000000    -0.0931176  
C169     C      0.200660000000     0.709070000000     0.482720000000    -0.00884207 
C170     C      0.177550000000     0.638870000000     0.487740000000    -0.0958153  
C171     C      0.194870000000     0.745040000000     0.502890000000    -0.0348496  
C172     C      0.147420000000     0.610710000000     0.486740000000     0.0713071  
C173     C      0.099680000000     0.660620000000     0.472370000000     0.101488   
C174     C      0.224750000000     0.773680000000     0.503820000000    -0.0357828  
C175     C      0.292610000000     0.797830000000     0.484850000000     0.0491806  
C176     C      0.168860000000     0.678740000000     0.481610000000     0.0545095  
C177     C      0.685410000000     0.492170000000     0.133930000000    -0.103712   
C178     C      0.815070000000     0.473760000000     0.363900000000     0.071892   
C179     C      0.864410000000     0.479200000000     0.314240000000     0.0713019  
C180     C      0.785390000000     0.473440000000     0.335100000000    -0.0926239  
C181     C      0.727980000000     0.497340000000     0.270540000000    -0.0358681  
C182     C      0.698790000000     0.498630000000     0.241200000000    -0.0347802  
C183     C      0.763930000000     0.477290000000     0.263870000000    -0.0064661  
C184     C      0.835420000000     0.479260000000     0.284690000000    -0.0926098  
C185     C      0.705000000000     0.480210000000     0.204380000000    -0.0089809  
C186     C      0.634690000000     0.476490000000     0.181100000000    -0.0959615  
C187     C      0.740760000000     0.459990000000     0.197710000000    -0.0349523  
C188     C      0.606620000000     0.478740000000     0.150880000000     0.0706583  
C189     C      0.656690000000     0.495050000000     0.103940000000     0.101546   
C190     C      0.769820000000     0.458420000000     0.227150000000    -0.035776   
C191     C      0.795280000000     0.476500000000     0.294900000000     0.0489693  
C192     C      0.674610000000     0.482700000000     0.172710000000     0.0542648  
C193     C      0.137180000000     0.494940000000     0.286240000000    -0.103445   
C194     C      0.367140000000     0.479860000000     0.156400000000     0.071181   
C195     C      0.316790000000     0.484460000000     0.107700000000     0.0713303  
C196     C      0.338730000000     0.479380000000     0.186540000000    -0.0926906  
C197     C      0.273920000000     0.501770000000     0.244810000000    -0.0358939  
C198     C      0.244480000000     0.502650000000     0.273980000000    -0.0348272  
C199     C      0.267600000000     0.481670000000     0.208780000000    -0.00653044 
C200     C      0.287670000000     0.484320000000     0.137090000000    -0.0927775  
C201     C      0.207960000000     0.483730000000     0.267670000000    -0.00881893 
C202     C      0.183770000000     0.480440000000     0.337860000000    -0.0953788  
C203     C      0.201790000000     0.463210000000     0.231950000000    -0.0349905  
C204     C      0.153050000000     0.482320000000     0.365470000000     0.0707783  
C205     C      0.106720000000     0.497460000000     0.314480000000     0.101537   
C206     C      0.231290000000     0.462060000000     0.202940000000    -0.0357924  
C207     C      0.298390000000     0.481700000000     0.177140000000     0.0488135  
C208     C      0.175900000000     0.486140000000     0.297710000000     0.0540972  
C209     C      0.133050000000     0.501660000000     0.685010000000    -0.102913   
C210     C      0.362110000000     0.483210000000     0.816450000000     0.071659   
C211     C      0.312740000000     0.489420000000     0.866020000000     0.0712258  
C212     C      0.333300000000     0.483760000000     0.786780000000    -0.093122   
C213     C      0.232230000000     0.517600000000     0.767070000000    -0.0360917  
C214     C      0.203380000000     0.519260000000     0.737410000000    -0.0345944  
C215     C      0.262460000000     0.489070000000     0.765520000000    -0.00649178 
C216     C      0.283180000000     0.490530000000     0.837000000000    -0.0928719  
C217     C      0.203770000000     0.492110000000     0.705710000000    -0.00859208 
C218     C      0.180930000000     0.486150000000     0.634950000000    -0.0945798  
C219     C      0.234160000000     0.463620000000     0.704170000000    -0.0345034  
C220     C      0.150860000000     0.487010000000     0.606560000000     0.0707378  
C221     C      0.103270000000     0.503150000000     0.656010000000     0.102121   
C222     C      0.263260000000     0.462220000000     0.733660000000    -0.0362442  
C223     C      0.293320000000     0.487650000000     0.796850000000     0.0491046  
C224     C      0.172220000000     0.493170000000     0.674790000000     0.0537857  
C225     C      0.636620000000     0.460860000000     0.788390000000    -0.102841   
C226     C      0.862000000000     0.475780000000     0.651800000000     0.0717749  
C227     C      0.814700000000     0.494700000000     0.603530000000     0.0721597  
C228     C      0.832810000000     0.475390000000     0.681090000000    -0.0919299  
C229     C      0.722160000000     0.479460000000     0.692980000000    -0.0356508  
C230     C      0.692670000000     0.479770000000     0.721990000000    -0.0345289  
C231     C      0.762080000000     0.486190000000     0.702970000000    -0.00571762 
C232     C      0.785100000000     0.496110000000     0.632370000000    -0.091967   
C233     C      0.702210000000     0.485300000000     0.762250000000    -0.00810959 
C234     C      0.674780000000     0.505190000000     0.828940000000    -0.0949979  
C235     C      0.742160000000     0.491720000000     0.772300000000    -0.0343202  
C236     C      0.645600000000     0.502880000000     0.858050000000     0.0721651  
C237     C      0.606930000000     0.460030000000     0.817510000000     0.102633   
C238     C      0.771470000000     0.492850000000     0.743100000000    -0.0356704  
C239     C      0.793670000000     0.485980000000     0.671840000000     0.0485194  
C240     C      0.670760000000     0.483980000000     0.793480000000     0.0534694  
C241     C      0.834060000000     0.783450000000     0.990510000000    -0.103557   
C242     C      0.602990000000     0.654630000000     0.982180000000     0.0711381  
C243     C      0.652830000000     0.605250000000     0.984840000000     0.0710245  
C244     C      0.631730000000     0.684430000000     0.981620000000    -0.0927645  
C245     C      0.697660000000     0.741640000000     0.003100000000    -0.0344202  
C246     C      0.727160000000     0.770750000000     0.003120000000    -0.0333887  
C247     C      0.703080000000     0.705860000000     0.982330000000    -0.00791517 
C248     C      0.682300000000     0.634310000000     0.984570000000    -0.0927373  
C249     C      0.762860000000     0.764640000000     0.982610000000    -0.0104686  
C250     C      0.786550000000     0.834980000000     0.979230000000    -0.0960948  
C251     C      0.768180000000     0.729080000000     0.961580000000    -0.0347812  
C252     C      0.817090000000     0.862800000000     0.980480000000     0.0703772  
C253     C      0.864430000000     0.811870000000     0.992330000000     0.100259   
C254     C      0.738610000000     0.700100000000     0.961330000000    -0.0357747  
C255     C      0.671990000000     0.674520000000     0.982820000000     0.0489151  
C256     C      0.794890000000     0.794800000000     0.983860000000     0.0541921  
C257     C      0.830870000000     0.182530000000     0.000630000000    -0.101418   
C258     C      0.602740000000     0.314730000000     0.978570000000     0.0715106  
C259     C      0.652870000000     0.363540000000     0.984790000000     0.0711843  
C260     C      0.631110000000     0.284600000000     0.979320000000    -0.0933863  
C261     C      0.701090000000     0.230280000000     0.959260000000    -0.0358365  
C262     C      0.730100000000     0.200710000000     0.961300000000    -0.0346306  
C263     C      0.701590000000     0.262340000000     0.985870000000    -0.00808536 
C264     C      0.681960000000     0.334080000000     0.986140000000    -0.0928986  
C265     C      0.760070000000     0.202380000000     0.990250000000    -0.0096494  
C266     C      0.783890000000     0.131860000000     0.984360000000    -0.0944601  
C267     C      0.759940000000     0.234120000000     0.017350000000    -0.0333896  
C268     C      0.814390000000     0.103890000000     0.985380000000     0.0698233  
C269     C      0.861060000000     0.153970000000     0.002280000000     0.102527   
C270     C      0.731230000000     0.263850000000     0.015020000000    -0.0345624  
C271     C      0.671200000000     0.294070000000     0.983530000000     0.0493697  
C272     C      0.791940000000     0.171800000000     0.991650000000     0.0522471  
C273     C      0.185270000000     0.835250000000     0.970340000000    -0.10274    
C274     C      0.314190000000     0.604350000000     0.987690000000     0.0713619  
C275     C      0.363740000000     0.653860000000     0.982420000000     0.0716576  
C276     C      0.284570000000     0.633240000000     0.987140000000    -0.0937622  
C277     C      0.265620000000     0.734680000000     0.953760000000    -0.0359842  
C278     C      0.236540000000     0.764090000000     0.952400000000    -0.0344584  
C279     C      0.263700000000     0.704350000000     0.982200000000    -0.00817289 
C280     C      0.334840000000     0.683450000000     0.981280000000    -0.0933621  
C281     C      0.205080000000     0.764160000000     0.979780000000    -0.0101482  
C282     C      0.134850000000     0.787820000000     0.986110000000    -0.0952266  
C283     C      0.203150000000     0.733620000000     0.008150000000    -0.0330177  
C284     C      0.106810000000     0.818150000000     0.985300000000     0.0711654  
C285     C      0.156560000000     0.865350000000     0.968870000000     0.101013   
C286     C      0.232050000000     0.703940000000     0.009220000000    -0.0347081  
C287     C      0.294740000000     0.673290000000     0.983640000000     0.0495379  
C288     C      0.174670000000     0.796140000000     0.978910000000     0.0541419  
C289     C      0.134510000000     0.185660000000     0.992020000000    -0.103237   
C290     C      0.364760000000     0.314700000000     0.983370000000     0.0715337  
C291     C      0.314890000000     0.363890000000     0.988470000000     0.0716704  
C292     C      0.336120000000     0.284890000000     0.982520000000    -0.0936536  
C293     C      0.270680000000     0.227120000000     0.003520000000    -0.0341853  
C294     C      0.241280000000     0.197970000000     0.003060000000    -0.0333831  
C295     C      0.264940000000     0.263400000000     0.983760000000    -0.00827076 
C296     C      0.285510000000     0.334800000000     0.987940000000    -0.0934227  
C297     C      0.205400000000     0.204600000000     0.983070000000    -0.01026    
C298     C      0.181690000000     0.134510000000     0.977850000000    -0.0955503  
C299     C      0.199750000000     0.240640000000     0.963010000000    -0.0348445  
C300     C      0.151190000000     0.106700000000     0.978940000000     0.0713915  
C301     C      0.104190000000     0.157230000000     0.993680000000     0.0997642  
C302     C      0.229230000000     0.269660000000     0.963230000000    -0.0356035  
C303     C      0.295890000000     0.294720000000     0.984750000000     0.0495418  
C304     C      0.173450000000     0.174480000000     0.984010000000     0.0545929  
C305     C      0.631020000000     0.976020000000     0.687360000000    -0.103351   
C306     C      0.812240000000     0.981570000000     0.867350000000     0.0707817  
C307     C      0.861270000000     0.988300000000     0.817520000000     0.0711789  
C308     C      0.782430000000     0.981380000000     0.838580000000    -0.0934958  
C309     C      0.730260000000     0.956860000000     0.768760000000    -0.035949   
C310     C      0.701140000000     0.956260000000     0.739330000000    -0.0346437  
C311     C      0.761130000000     0.984710000000     0.767350000000    -0.00826393 
C312     C      0.832220000000     0.988610000000     0.788090000000    -0.0938267  
C313     C      0.701950000000     0.983780000000     0.707970000000    -0.0102608  
C314     C      0.679250000000     0.990410000000     0.637300000000    -0.0955074  
C315     C      0.732930000000     0.011630000000     0.706580000000    -0.0332861  
C316     C      0.649240000000     0.989870000000     0.608850000000     0.0705532  
C317     C      0.601240000000     0.974910000000     0.658310000000     0.101504   
C318     C      0.762250000000     0.012000000000     0.735860000000    -0.0348601  
C319     C      0.792280000000     0.985010000000     0.798410000000     0.0492496  
C320     C      0.670360000000     0.983600000000     0.677120000000     0.054012   
C321     C      0.179650000000     0.998250000000     0.828250000000    -0.108347   
C322     C      0.311180000000     0.983140000000     0.599940000000     0.0714906  
C323     C      0.359200000000     0.988600000000     0.650870000000     0.0711546  
C324     C      0.280750000000     0.982540000000     0.627980000000    -0.0932404  
C325     C      0.263320000000     0.965040000000     0.735160000000    -0.0359024  
C326     C      0.234000000000     0.965800000000     0.764320000000    -0.0346092  
C327     C      0.257660000000     0.984670000000     0.698810000000    -0.00798289 
C328     C      0.329480000000     0.988360000000     0.679650000000    -0.0931469  
C329     C      0.198180000000     0.985930000000     0.757770000000    -0.0112793  
C330     C      0.128110000000     0.982040000000     0.782160000000    -0.0969042  
C331     C      0.191970000000     0.004720000000     0.721150000000    -0.0330214  
C332     C      0.100650000000     0.983930000000     0.813040000000     0.070983   
C333     C      0.151610000000     0.000830000000     0.858810000000     0.105665   
C334     C      0.221460000000     0.004240000000     0.692030000000    -0.0346242  
C335     C      0.289650000000     0.985150000000     0.668440000000     0.0491404  
C336     C      0.168160000000     0.988490000000     0.789770000000     0.0563056  
C337     C      0.186740000000     0.972880000000     0.131680000000    -0.102993   
C338     C      0.316720000000     0.987930000000     0.361670000000     0.0718328  
C339     C      0.366490000000     0.981770000000     0.312510000000     0.0714129  
C340     C      0.287300000000     0.987920000000     0.332660000000    -0.0935015  
C341     C      0.272300000000     0.003180000000     0.224990000000    -0.0341826  
C342     C      0.243040000000     0.002400000000     0.195710000000    -0.0333903  
C343     C      0.266370000000     0.983810000000     0.261430000000    -0.00802603 
C344     C      0.337730000000     0.981460000000     0.282710000000    -0.0929404  
C345     C      0.207100000000     0.982430000000     0.202260000000    -0.0100252  
C346     C      0.136540000000     0.987070000000     0.179880000000    -0.0952131  
C347     C      0.201000000000     0.963280000000     0.238720000000    -0.0345975  
C348     C      0.108160000000     0.985940000000     0.149900000000     0.0712623  
C349     C      0.157730000000     0.971190000000     0.101910000000     0.100349   
C350     C      0.230350000000     0.963840000000     0.267910000000    -0.0355168  
C351     C      0.297530000000     0.984460000000     0.292600000000     0.0494905  
C352     C      0.176360000000     0.981060000000     0.170860000000     0.0544976  
C353     C      0.837380000000     0.988540000000     0.188130000000    -0.101998   
C354     C      0.655400000000     0.982280000000     0.367270000000     0.0711285  
C355     C      0.606330000000     0.977580000000     0.317230000000     0.0716438  
C356     C      0.685260000000     0.982340000000     0.338570000000    -0.0932209  
C357     C      0.705050000000     0.954430000000     0.234860000000    -0.0358675  
C358     C      0.734490000000     0.955150000000     0.205700000000    -0.0345503  
C359     C      0.706720000000     0.980500000000     0.267340000000    -0.00799257 
C360     C      0.635450000000     0.977240000000     0.287850000000    -0.0931348  
C361     C      0.766170000000     0.982120000000     0.208240000000    -0.00993304 
C362     C      0.788890000000     0.977880000000     0.137440000000    -0.0948518  
C363     C      0.767550000000     0.008420000000     0.240610000000    -0.0332143  
C364     C      0.818960000000     0.978750000000     0.109100000000     0.0703915  
C365     C      0.867300000000     0.989880000000     0.159220000000     0.0983952  
C366     C      0.738280000000     0.007500000000     0.269870000000    -0.0345861  
C367     C      0.675450000000     0.979860000000     0.298310000000     0.0493402  
C368     C      0.797850000000     0.982680000000     0.177510000000     0.0536542  
C369     C      0.997220000000     0.338320000000     0.687600000000    -0.104042   
C370     C      0.979220000000     0.107640000000     0.817310000000     0.0716106  
C371     C      0.985170000000     0.156540000000     0.867420000000     0.0716924  
C372     C      0.979710000000     0.136850000000     0.787980000000    -0.0932737  
C373     C      0.012920000000     0.238730000000     0.769850000000    -0.03465    
C374     C      0.014620000000     0.267940000000     0.740510000000    -0.0330937  
C375     C      0.984850000000     0.208080000000     0.767590000000    -0.00783392 
C376     C      0.986160000000     0.186470000000     0.838780000000    -0.0928077  
C377     C      0.988030000000     0.267430000000     0.708380000000    -0.0102492  
C378     C      0.983520000000     0.289850000000     0.637520000000    -0.0951866  
C379     C      0.959910000000     0.236730000000     0.706220000000    -0.0344316  
C380     C      0.984590000000     0.319740000000     0.608970000000     0.0704407  
C381     C      0.998840000000     0.368000000000     0.658410000000     0.0990414  
C382     C      0.958430000000     0.207330000000     0.735410000000    -0.0360831  
C383     C      0.983430000000     0.176780000000     0.798510000000     0.0493776  
C384     C      0.989460000000     0.298920000000     0.677430000000     0.0542128  
C385     C      0.967380000000     0.687630000000     0.631490000000    -0.103601   
C386     C      0.983540000000     0.817170000000     0.862030000000     0.0716958  
C387     C      0.977780000000     0.867150000000     0.813000000000     0.0711015  
C388     C      0.982860000000     0.787750000000     0.832950000000    -0.0927386  
C389     C      0.997680000000     0.773120000000     0.725080000000    -0.0371176  
C390     C      0.996780000000     0.743960000000     0.695660000000    -0.0362842  
C391     C      0.978480000000     0.767040000000     0.761580000000    -0.00618925 
C392     C      0.976760000000     0.838420000000     0.783160000000    -0.0927306  
C393     C      0.976890000000     0.707950000000     0.702130000000    -0.0085147  
C394     C      0.981990000000     0.637410000000     0.679550000000    -0.0952545  
C395     C      0.957900000000     0.701690000000     0.738640000000    -0.0349232  
C396     C      0.981160000000     0.609060000000     0.649490000000     0.0705798  
C397     C      0.966010000000     0.658650000000     0.601610000000     0.101783   
C398     C      0.958550000000     0.730950000000     0.767970000000    -0.0359299  
C399     C      0.979360000000     0.798110000000     0.792910000000     0.0486528  
C400     C      0.975610000000     0.677230000000     0.670650000000     0.0539089  
C401     C      0.998410000000     0.828830000000     0.180270000000    -0.107708   
C402     C      0.980890000000     0.599940000000     0.311090000000     0.0718627  
C403     C      0.984230000000     0.650830000000     0.359400000000     0.0720501  
C404     C      0.980950000000     0.628060000000     0.280680000000    -0.0927888  
C405     C      0.003570000000     0.692510000000     0.222100000000    -0.0344677  
C406     C      0.004700000000     0.721780000000     0.192750000000    -0.0329781  
C407     C      0.983110000000     0.699070000000     0.257880000000    -0.00759532 
C408     C      0.984700000000     0.679670000000     0.329750000000    -0.0926369  
C409     C      0.985740000000     0.758350000000     0.198710000000    -0.0109904  
C410     C      0.982280000000     0.782720000000     0.128640000000    -0.096623   
C411     C      0.964840000000     0.764740000000     0.234120000000    -0.0343757  
C412     C      0.984190000000     0.813580000000     0.101170000000     0.0709773  
C413     C      0.001060000000     0.859390000000     0.152170000000     0.104727   
C414     C      0.963360000000     0.735400000000     0.263260000000    -0.0357239  
C415     C      0.982870000000     0.668540000000     0.289770000000     0.0493765  
C416     C      0.988630000000     0.790360000000     0.168730000000     0.0562167  
C417     C      0.994740000000     0.132420000000     0.186890000000    -0.105077   
C418     C      0.983630000000     0.361930000000     0.317690000000     0.0721673  
C419     C      0.989430000000     0.312630000000     0.367410000000     0.0713947  
C420     C      0.983210000000     0.333000000000     0.288180000000    -0.0933741  
C421     C      0.005500000000     0.268180000000     0.230660000000    -0.0344896  
C422     C      0.005140000000     0.239160000000     0.201110000000    -0.0333196  
C423     C      0.986030000000     0.261800000000     0.267010000000    -0.00790224 
C424     C      0.989330000000     0.282880000000     0.338540000000    -0.0927662  
C425     C      0.985580000000     0.202960000000     0.207340000000    -0.0105073  
C426     C      0.979880000000     0.180510000000     0.136760000000    -0.0956601  
C427     C      0.966090000000     0.196510000000     0.243580000000    -0.0346119  
C428     C      0.980870000000     0.150500000000     0.108350000000     0.07147    
C429     C      0.996340000000     0.102640000000     0.157870000000     0.100844   
C430     C      0.966210000000     0.225630000000     0.273040000000    -0.0356692  
C431     C      0.986210000000     0.292880000000     0.298320000000     0.049377   
C432     C      0.986380000000     0.171550000000     0.176560000000     0.0552413  
H1       H      0.929870000000     0.926010000000     0.041570000000     0.210905   
H2       H      0.041750000000     0.040870000000     0.041100000000     0.213927   
H3       H      0.925380000000     0.041830000000     0.930450000000     0.209394   
H4       H      0.040350000000     0.930120000000     0.924970000000     0.211361   
H5       H      0.925050000000     0.537660000000     0.425410000000     0.212047   
H6       H      0.043340000000     0.429230000000     0.429360000000     0.209883   
H7       H      0.929120000000     0.427100000000     0.542130000000     0.210709   
H8       H      0.037300000000     0.545830000000     0.539690000000     0.211453   
H9       H      0.427450000000     0.927030000000     0.427450000000     0.211103   
H10      H      0.542110000000     0.039510000000     0.427580000000     0.209839   
H11      H      0.538320000000     0.928390000000     0.543340000000     0.210739   
H12      H      0.426350000000     0.043110000000     0.538800000000     0.210917   
H13      H      0.428010000000     0.540900000000     0.042540000000     0.210523   
H14      H      0.426180000000     0.428050000000     0.928540000000     0.210482   
H15      H      0.541780000000     0.427810000000     0.040000000000     0.210697   
H16      H      0.539370000000     0.541750000000     0.926700000000     0.210014   
H17      H      0.491710000000     0.394990000000     0.163060000000     0.0231458  
H18      H      0.497560000000     0.158860000000     0.391580000000     0.024146   
H19      H      0.451990000000     0.297440000000     0.246600000000     0.0373922  
H20      H      0.521810000000     0.170590000000     0.221020000000     0.0376824  
H21      H      0.499390000000     0.210630000000     0.342770000000     0.0528057  
H22      H      0.522620000000     0.222310000000     0.170530000000     0.037353   
H23      H      0.470220000000     0.126970000000     0.251680000000     0.0574286  
H24      H      0.493230000000     0.344600000000     0.213880000000     0.0514821  
H25      H      0.480410000000     0.254600000000     0.123880000000     0.0520312  
H26      H      0.452020000000     0.245940000000     0.297340000000     0.037581   
H27      H      0.480240000000     0.305570000000     0.073570000000     0.0242652  
H28      H      0.491140000000     0.573640000000     0.163560000000     0.0239712  
H29      H      0.475730000000     0.891860000000     0.309500000000     0.0240263  
H30      H      0.449370000000     0.671190000000     0.246100000000     0.0369446  
H31      H      0.522120000000     0.796960000000     0.223440000000     0.0372079  
H32      H      0.474740000000     0.843020000000     0.257780000000     0.052824   
H33      H      0.522170000000     0.746170000000     0.171960000000     0.0373227  
H34      H      0.501230000000     0.751790000000     0.342190000000     0.0571052  
H35      H      0.491720000000     0.624000000000     0.214450000000     0.0517343  
H36      H      0.480570000000     0.714110000000     0.124340000000     0.0520457  
H37      H      0.450100000000     0.721710000000     0.297760000000     0.0372604  
H38      H      0.481280000000     0.663200000000     0.074000000000     0.0244736  
H39      H      0.474310000000     0.896900000000     0.664970000000     0.0250237  
H40      H      0.490320000000     0.576230000000     0.807880000000     0.0246787  
H41      H      0.428370000000     0.790110000000     0.737180000000     0.037859   
H42      H      0.527010000000     0.681160000000     0.731920000000     0.0370226  
H43      H      0.489410000000     0.625390000000     0.756340000000     0.0527082  
H44      H      0.528100000000     0.732820000000     0.681240000000     0.0377745  
H45      H      0.462980000000     0.715610000000     0.842030000000     0.0565401  
H46      H      0.473560000000     0.846000000000     0.715850000000     0.0522404  
H47      H      0.484810000000     0.756430000000     0.625420000000     0.0524557  
H48      H      0.426450000000     0.738060000000     0.787230000000     0.0370617  
H49      H      0.485460000000     0.807560000000     0.575310000000     0.0242512  
H50      H      0.482860000000     0.395420000000     0.805310000000     0.0250527  
H51      H      0.477520000000     0.076740000000     0.659820000000     0.025598   
H52      H      0.438020000000     0.228580000000     0.790960000000     0.0374929  
H53      H      0.532900000000     0.241390000000     0.679430000000     0.0373804  
H54      H      0.478100000000     0.125130000000     0.711690000000     0.0529257  
H55      H      0.531180000000     0.292230000000     0.730690000000     0.0380166  
H56      H      0.494180000000     0.217840000000     0.626170000000     0.0566261  
H57      H      0.483910000000     0.344770000000     0.754490000000     0.0522862  
H58      H      0.482340000000     0.254670000000     0.845100000000     0.0520555  
H59      H      0.438910000000     0.178060000000     0.739130000000     0.0368639  
H60      H      0.481580000000     0.305840000000     0.895420000000     0.0236059  
H61      H      0.663280000000     0.072290000000     0.485550000000     0.0233681  
H62      H      0.810910000000     0.389920000000     0.493890000000     0.0247655  
H63      H      0.745460000000     0.170540000000     0.527110000000     0.0369863  
H64      H      0.726730000000     0.293730000000     0.448990000000     0.037386   
H65      H      0.759410000000     0.341160000000     0.495400000000     0.0528298  
H66      H      0.674740000000     0.243580000000     0.449140000000     0.0371066  
H67      H      0.844670000000     0.248880000000     0.476910000000     0.0568695  
H68      H      0.714620000000     0.122100000000     0.485900000000     0.0514119  
H69      H      0.625170000000     0.213380000000     0.489670000000     0.0518269  
H70      H      0.797700000000     0.220460000000     0.526240000000     0.036969   
H71      H      0.574390000000     0.162900000000     0.488060000000     0.0251385  
H72      H      0.570710000000     0.804770000000     0.483950000000     0.0254388  
H73      H      0.888590000000     0.658260000000     0.487690000000     0.0269991  
H74      H      0.672840000000     0.728390000000     0.437340000000     0.0380705  
H75      H      0.787190000000     0.735530000000     0.529410000000     0.0374473  
H76      H      0.839640000000     0.709450000000     0.488410000000     0.0530596  
H77      H      0.737040000000     0.787590000000     0.530900000000     0.0376124  
H78      H      0.747820000000     0.622860000000     0.473440000000     0.0566739  
H79      H      0.620470000000     0.753160000000     0.482900000000     0.0523606  
H80      H      0.711860000000     0.842260000000     0.488210000000     0.0522159  
H81      H      0.723240000000     0.676710000000     0.435270000000     0.037077   
H82      H      0.661540000000     0.893360000000     0.489330000000     0.0239177  
H83      H      0.396800000000     0.164480000000     0.484020000000     0.0251189  
H84      H      0.079280000000     0.311760000000     0.479810000000     0.0250475  
H85      H      0.294550000000     0.240150000000     0.530810000000     0.0377855  
H86      H      0.180860000000     0.235260000000     0.437790000000     0.0371081  
H87      H      0.128200000000     0.260550000000     0.478710000000     0.052882   
H88      H      0.230850000000     0.183070000000     0.435610000000     0.037992   
H89      H      0.219850000000     0.346710000000     0.496940000000     0.0566114  
H90      H      0.347150000000     0.216170000000     0.485060000000     0.0524336  
H91      H      0.255640000000     0.127380000000     0.477420000000     0.0521695  
H92      H      0.244290000000     0.291920000000     0.533610000000     0.0371437  
H93      H      0.305890000000     0.076150000000     0.476220000000     0.0241487  
H94      H      0.304130000000     0.897380000000     0.479520000000     0.0234886  
H95      H      0.156310000000     0.580390000000     0.492630000000     0.0250775  
H96      H      0.219560000000     0.800790000000     0.520200000000     0.0373854  
H97      H      0.242060000000     0.675060000000     0.447300000000     0.0374619  
H98      H      0.207550000000     0.629380000000     0.494060000000     0.0532034  
H99      H      0.294030000000     0.725220000000     0.448380000000     0.0372608  
H100     H      0.122880000000     0.720360000000     0.467890000000     0.0574206  
H101     H      0.252660000000     0.847730000000     0.478650000000     0.0516499  
H102     H      0.341330000000     0.756470000000     0.491110000000     0.0521576  
H103     H      0.167400000000     0.750840000000     0.518420000000     0.0376473  
H104     H      0.392350000000     0.806740000000     0.490730000000     0.0248903  
H105     H      0.895000000000     0.481740000000     0.304830000000     0.023853   
H106     H      0.576260000000     0.472500000000     0.159280000000     0.0236441  
H107     H      0.796790000000     0.442080000000     0.221200000000     0.0372677  
H108     H      0.671720000000     0.514860000000     0.246980000000     0.0373372  
H109     H      0.625150000000     0.469080000000     0.210860000000     0.0525552  
H110     H      0.722640000000     0.512800000000     0.298160000000     0.0372168  
H111     H      0.716280000000     0.498510000000     0.127460000000     0.0574498  
H112     H      0.844530000000     0.482240000000     0.254060000000     0.0517436  
H113     H      0.754840000000     0.470500000000     0.344430000000     0.0519627  
H114     H      0.746120000000     0.445080000000     0.169780000000     0.0374543  
H115     H      0.805810000000     0.471440000000     0.394590000000     0.0254119  
H116     H      0.306890000000     0.486710000000     0.077200000000     0.0237115  
H117     H      0.160980000000     0.476390000000     0.396060000000     0.0251422  
H118     H      0.225650000000     0.445570000000     0.175980000000     0.0374306  
H119     H      0.249900000000     0.519050000000     0.301060000000     0.037316   
H120     H      0.213460000000     0.473630000000     0.347940000000     0.0531195  
H121     H      0.301260000000     0.517670000000     0.250160000000     0.0368712  
H122     H      0.131080000000     0.501040000000     0.255210000000     0.0572337  
H123     H      0.256930000000     0.486880000000     0.128330000000     0.051671   
H124     H      0.348460000000     0.476730000000     0.217010000000     0.0514985  
H125     H      0.174150000000     0.447840000000     0.226520000000     0.037631   
H126     H      0.397950000000     0.477900000000     0.165220000000     0.0238874  
H127     H      0.303490000000     0.491700000000     0.896700000000     0.0238423  
H128     H      0.159600000000     0.480540000000     0.576310000000     0.0264142  
H129     H      0.286030000000     0.439670000000     0.731890000000     0.0376542  
H130     H      0.180990000000     0.542170000000     0.739180000000     0.0372151  
H131     H      0.211000000000     0.480180000000     0.625500000000     0.0526977  
H132     H      0.231240000000     0.539100000000     0.790900000000     0.038194   
H133     H      0.125700000000     0.507280000000     0.715840000000     0.0570863  
H134     H      0.252510000000     0.493240000000     0.846020000000     0.0520728  
H135     H      0.342410000000     0.481820000000     0.756050000000     0.0524491  
H136     H      0.235120000000     0.441890000000     0.680550000000     0.0372702  
H137     H      0.392680000000     0.480370000000     0.807050000000     0.0243767  
H138     H      0.806570000000     0.502800000000     0.573500000000     0.0258053  
H139     H      0.650040000000     0.520290000000     0.884750000000     0.021108   
H140     H      0.801500000000     0.499120000000     0.752330000000     0.0367399  
H141     H      0.662340000000     0.475710000000     0.712510000000     0.0362723  
H142     H      0.700030000000     0.524190000000     0.834300000000     0.0519745  
H143     H      0.713340000000     0.473430000000     0.662750000000     0.0364613  
H144     H      0.633510000000     0.442450000000     0.762220000000     0.0564697  
H145     H      0.755840000000     0.505660000000     0.623490000000     0.0518334  
H146     H      0.841150000000     0.466150000000     0.710640000000     0.0517754  
H147     H      0.751230000000     0.495460000000     0.802830000000     0.0362761  
H148     H      0.891750000000     0.467330000000     0.660470000000     0.0245282  
H149     H      0.662380000000     0.574600000000     0.986250000000     0.0251343  
H150     H      0.808560000000     0.893430000000     0.975730000000     0.0241656  
H151     H      0.743520000000     0.673290000000     0.944360000000     0.0367666  
H152     H      0.722420000000     0.797650000000     0.019990000000     0.0369551  
H153     H      0.756520000000     0.844970000000     0.973920000000     0.0521294  
H154     H      0.670960000000     0.746890000000     0.020080000000     0.0373667  
H155     H      0.840650000000     0.752320000000     0.995470000000     0.056787   
H156     H      0.713000000000     0.625190000000     0.986230000000     0.0518379  
H157     H      0.622300000000     0.715060000000     0.979690000000     0.0515511  
H158     H      0.795150000000     0.723770000000     0.945020000000     0.0374033  
H159     H      0.572260000000     0.663870000000     0.981030000000     0.0246561  
H160     H      0.662610000000     0.394080000000     0.987060000000     0.025015   
H161     H      0.806210000000     0.073550000000     0.978620000000     0.024071   
H162     H      0.731930000000     0.287800000000     0.036400000000     0.0379499  
H163     H      0.729510000000     0.177030000000     0.939640000000     0.0370533  
H164     H      0.754030000000     0.122020000000     0.977990000000     0.052187   
H165     H      0.678720000000     0.228500000000     0.936310000000     0.0379862  
H166     H      0.837740000000     0.213430000000     0.006450000000     0.0568599  
H167     H      0.712750000000     0.342630000000     0.989000000000     0.0524339  
H168     H      0.621560000000     0.254000000000     0.977450000000     0.0520998  
H169     H      0.781920000000     0.235960000000     0.040650000000     0.0373262  
H170     H      0.572030000000     0.305830000000     0.975660000000     0.0240716  
H171     H      0.394390000000     0.663230000000     0.980690000000     0.0253501  
H172     H      0.076560000000     0.809630000000     0.991920000000     0.0257171  
H173     H      0.230050000000     0.681100000000     0.031700000000     0.0378156  
H174     H      0.238560000000     0.786570000000     0.929570000000     0.0368703  
H175     H      0.125110000000     0.757820000000     0.992140000000     0.0523744  
H176     H      0.289360000000     0.735360000000     0.932170000000     0.0378838  
H177     H      0.216120000000     0.842290000000     0.964620000000     0.056834   
H178     H      0.343920000000     0.714170000000     0.978990000000     0.0524277  
H179     H      0.253830000000     0.624190000000     0.988760000000     0.0517965  
H180     H      0.179700000000     0.733000000000     0.030030000000     0.0374754  
H181     H      0.304830000000     0.573700000000     0.990120000000     0.0232069  
H182     H      0.305330000000     0.394470000000     0.990990000000     0.0235594  
H183     H      0.159610000000     0.076230000000     0.973170000000     0.0277212  
H184     H      0.224110000000     0.296910000000     0.947030000000     0.0370599  
H185     H      0.246220000000     0.170640000000     0.019180000000     0.0377532  
H186     H      0.211590000000     0.124710000000     0.971530000000     0.053545   
H187     H      0.297570000000     0.221510000000     0.020090000000     0.0375337  
H188     H      0.128110000000     0.216620000000     0.998190000000     0.0569109  
H189     H      0.254810000000     0.343770000000     0.990470000000     0.0516869  
H190     H      0.345540000000     0.254350000000     0.979500000000     0.0514335  
H191     H      0.172580000000     0.246300000000     0.946910000000     0.0376942  
H192     H      0.395480000000     0.305570000000     0.981300000000     0.0233505  
H193     H      0.891790000000     0.991010000000     0.807920000000     0.0231922  
H194     H      0.658180000000     0.995990000000     0.578590000000     0.0243586  
H195     H      0.785480000000     0.034090000000     0.734220000000     0.0372335  
H196     H      0.678250000000     0.933840000000     0.740950000000     0.0370339  
H197     H      0.709430000000     0.995810000000     0.627880000000     0.0517903  
H198     H      0.728980000000     0.935040000000     0.792290000000     0.0377191  
H199     H      0.623550000000     0.970750000000     0.718220000000     0.0568178  
H200     H      0.841110000000     0.991050000000     0.757330000000     0.0515358  
H201     H      0.751810000000     0.978860000000     0.847810000000     0.0515939  
H202     H      0.734210000000     0.033610000000     0.683210000000     0.0369258  
H203     H      0.803190000000     0.978800000000     0.898060000000     0.0227643  
H204     H      0.389530000000     0.991200000000     0.661090000000     0.0233099  
H205     H      0.070150000000     0.977370000000     0.805400000000     0.0237698  
H206     H      0.216240000000     0.020090000000     0.664610000000     0.0373267  
H207     H      0.239330000000     0.950560000000     0.792090000000     0.0373022  
H208     H      0.118050000000     0.974600000000     0.752580000000     0.0527544  
H209     H      0.290410000000     0.948920000000     0.741110000000     0.037043   
H210     H      0.210580000000     0.004990000000     0.834060000000     0.059682   
H211     H      0.337800000000     0.991190000000     0.710530000000     0.0513678  
H212     H      0.250460000000     0.979460000000     0.617890000000     0.0514098  
H213     H      0.164780000000     0.020800000000     0.715460000000     0.0375279  
H214     H      0.302730000000     0.980840000000     0.569020000000     0.0238664  
H215     H      0.397170000000     0.979140000000     0.303420000000     0.024368   
H216     H      0.077890000000     0.991850000000     0.158820000000     0.0268885  
H217     H      0.225020000000     0.948030000000     0.295340000000     0.0371797  
H218     H      0.248350000000     0.017840000000     0.168060000000     0.0379802  
H219     H      0.127300000000     0.993450000000     0.209970000000     0.0535183  
H220     H      0.299360000000     0.019410000000     0.219230000000     0.0378006  
H221     H      0.217510000000     0.966620000000     0.124670000000     0.0574019  
H222     H      0.347040000000     0.978240000000     0.252160000000     0.0518247  
H223     H      0.256680000000     0.991050000000     0.341700000000     0.0516865  
H224     H      0.173830000000     0.947180000000     0.244390000000     0.0378072  
H225     H      0.307170000000     0.990710000000     0.392230000000     0.0236346  
H226     H      0.575770000000     0.975760000000     0.307550000000     0.0250128  
H227     H      0.809810000000     0.974370000000     0.078600000000     0.0246815  
H228     H      0.740020000000     0.028410000000     0.294170000000     0.0377553  
H229     H      0.732750000000     0.934120000000     0.181510000000     0.0368454  
H230     H      0.758570000000     0.973830000000     0.127750000000     0.0523672  
H231     H      0.681290000000     0.933000000000     0.232320000000     0.037664   
H232     H      0.844880000000     0.992120000000     0.219230000000     0.0562181  
H233     H      0.626570000000     0.975640000000     0.257030000000     0.0522264  
H234     H      0.715900000000     0.983990000000     0.347940000000     0.0517658  
H235     H      0.791030000000     0.030140000000     0.243140000000     0.037609   
H236     H      0.664460000000     0.984260000000     0.398030000000     0.0232697  
H237     H      0.987380000000     0.165500000000     0.898210000000     0.0257771  
H238     H      0.978920000000     0.310630000000     0.578670000000     0.0250287  
H239     H      0.936180000000     0.184310000000     0.733110000000     0.0372383  
H240     H      0.037200000000     0.290630000000     0.742780000000     0.0375196  
H241     H      0.978210000000     0.259610000000     0.628120000000     0.0525698  
H242     H      0.034070000000     0.239740000000     0.793970000000     0.0383725  
H243     H      0.002090000000     0.345920000000     0.718490000000     0.0580126  
H244     H      0.988680000000     0.217080000000     0.848180000000     0.0524536  
H245     H      0.977880000000     0.128060000000     0.757140000000     0.0519641  
H246     H      0.938580000000     0.235700000000     0.682270000000     0.0366691  
H247     H      0.976550000000     0.077130000000     0.807580000000     0.0238515  
H248     H      0.975550000000     0.897910000000     0.803960000000     0.0233662  
H249     H      0.987310000000     0.578810000000     0.658400000000     0.0262458  
H250     H      0.942880000000     0.725480000000     0.795440000000     0.0374378  
H251     H      0.012120000000     0.749400000000     0.667990000000     0.0388847  
H252     H      0.988470000000     0.628140000000     0.709610000000     0.0530719  
H253     H      0.013910000000     0.800210000000     0.719360000000     0.0382816  
H254     H      0.960940000000     0.718410000000     0.624540000000     0.057048   
H255     H      0.973430000000     0.847860000000     0.752660000000     0.0513303  
H256     H      0.985620000000     0.757050000000     0.841920000000     0.0518818  
H257     H      0.941880000000     0.674430000000     0.744260000000     0.0374906  
H258     H      0.986400000000     0.807530000000     0.892560000000     0.0248186  
H259     H      0.985780000000     0.661020000000     0.389840000000     0.0258506  
H260     H      0.977710000000     0.805910000000     0.070640000000     0.0254038  
H261     H      0.946560000000     0.741200000000     0.289980000000     0.0374234  
H262     H      0.021330000000     0.716240000000     0.165850000000     0.0374959  
H263     H      0.974850000000     0.753140000000     0.118560000000     0.0533702  
H264     H      0.019560000000     0.665140000000     0.217100000000     0.0377348  
H265     H      0.005080000000     0.834630000000     0.211240000000     0.0597597  
H266     H      0.987020000000     0.710530000000     0.338280000000     0.0523616  
H267     H      0.978950000000     0.618010000000     0.250260000000     0.0517682  
H268     H      0.949470000000     0.792480000000     0.239220000000     0.0378892  
H269     H      0.979220000000     0.569000000000     0.302530000000     0.0247241  
H270     H      0.992000000000     0.303470000000     0.398110000000     0.0242967  
H271     H      0.974800000000     0.159420000000     0.078080000000     0.0275884  
H272     H      0.950320000000     0.219960000000     0.300340000000     0.0375573  
H273     H      0.020910000000     0.244710000000     0.173700000000     0.0376352  
H274     H      0.973360000000     0.210580000000     0.127570000000     0.0535279  
H275     H      0.021640000000     0.295390000000     0.225220000000     0.0373716  
H276     H      0.001270000000     0.125470000000     0.217650000000     0.0589679  
H277     H      0.992230000000     0.252270000000     0.347770000000     0.0517395  
H278     H      0.980010000000     0.342160000000     0.257580000000     0.0519031  
H279     H      0.950390000000     0.169030000000     0.249010000000     0.0377784  
H280     H      0.981110000000     0.392530000000     0.308160000000     0.0247231  
N1       N      0.483060000000     0.111690000000     0.350880000000    -0.193956   
N2       N      0.485890000000     0.354230000000     0.114360000000    -0.19272    
N3       N      0.488690000000     0.851080000000     0.357070000000    -0.19423    
N4       N      0.486130000000     0.614460000000     0.114840000000    -0.19278    
N5       N      0.476650000000     0.616370000000     0.855690000000    -0.193859   
N6       N      0.479880000000     0.856240000000     0.616220000000    -0.192372   
N7       N      0.486250000000     0.118020000000     0.611680000000    -0.193308   
N8       N      0.482450000000     0.354620000000     0.854310000000    -0.192426   
N9       N      0.859080000000     0.348830000000     0.484620000000    -0.193399   
N10      N      0.614830000000     0.113670000000     0.486660000000    -0.192346   
N11      N      0.847840000000     0.609590000000     0.479680000000    -0.193304   
N12      N      0.612220000000     0.853080000000     0.486570000000    -0.19233    
N13      N      0.119950000000     0.360200000000     0.489560000000    -0.193537   
N14      N      0.355240000000     0.116280000000     0.480220000000    -0.192191   
N15      N      0.108450000000     0.620850000000     0.479660000000    -0.193456   
N16      N      0.352250000000     0.855960000000     0.485080000000    -0.192594   
N17      N      0.616990000000     0.487130000000     0.112220000000    -0.193824   
N18      N      0.854370000000     0.476810000000     0.353660000000    -0.192315   
N19      N      0.114460000000     0.489790000000     0.354360000000    -0.193628   
N20      N      0.356330000000     0.482370000000     0.117170000000    -0.192187   
N21      N      0.111980000000     0.494580000000     0.616490000000    -0.193348   
N22      N      0.352030000000     0.486010000000     0.855870000000    -0.192081   
N23      N      0.611500000000     0.481470000000     0.852290000000    -0.196381   
N24      N      0.852970000000     0.484970000000     0.613200000000    -0.193072   
N25      N      0.856060000000     0.851960000000     0.986390000000    -0.193438   
N26      N      0.613380000000     0.615240000000     0.983670000000    -0.192149   
N27      N      0.853050000000     0.114380000000     0.993340000000    -0.194033   
N28      N      0.613420000000     0.353990000000     0.981500000000    -0.192036   
N29      N      0.117030000000     0.856960000000     0.977460000000    -0.193411   
N30      N      0.353580000000     0.614490000000     0.985290000000    -0.192491   
N31      N      0.112400000000     0.117370000000     0.986140000000    -0.193392   
N32      N      0.354310000000     0.354010000000     0.986110000000    -0.193041   
N33      N      0.610240000000     0.982740000000     0.618680000000    -0.193553   
N34      N      0.851470000000     0.984870000000     0.856960000000    -0.192442   
N35      N      0.111870000000     0.992180000000     0.851490000000    -0.194962   
N36      N      0.350210000000     0.986030000000     0.611220000000    -0.192614   
N37      N      0.118150000000     0.979000000000     0.110860000000    -0.19333    
N38      N      0.356110000000     0.984770000000     0.351800000000    -0.192679   
N39      N      0.858170000000     0.984290000000     0.119220000000    -0.192532   
N40      N      0.616120000000     0.980190000000     0.356740000000    -0.19211    
N41      N      0.991350000000     0.358850000000     0.618780000000    -0.193125   
N42      N      0.981990000000     0.117300000000     0.856830000000    -0.192033   
N43      N      0.974120000000     0.619040000000     0.610450000000    -0.193454   
N44      N      0.981080000000     0.856670000000     0.852240000000    -0.192382   
N45      N      0.992340000000     0.852050000000     0.112420000000    -0.19479    
N46      N      0.982390000000     0.611160000000     0.350250000000    -0.192406   
N47      N      0.988260000000     0.111510000000     0.118250000000    -0.193195   
N48      N      0.986690000000     0.351960000000     0.357110000000    -0.192581   
O1       O      0.985200000000     0.095550000000     0.051770000000    -0.371328   
O2       O      0.989450000000     0.870800000000     0.046760000000    -0.37425    
O3       O      0.923180000000     0.982720000000     0.098160000000    -0.373413   
O4       O      0.051840000000     0.980910000000     0.094870000000    -0.372236   
O5       O      0.097850000000     0.983140000000     0.045770000000    -0.372708   
O6       O      0.873710000000     0.983790000000     0.052560000000    -0.372415   
O7       O      0.988830000000     0.917920000000     0.094910000000    -0.374861   
O8       O      0.986890000000     0.046360000000     0.097740000000    -0.373957   
O9       O      0.026170000000     0.944300000000     0.022550000000    -0.508793   
O10      O      0.944670000000     0.023290000000     0.026350000000    -0.505395   
O11      O      0.945550000000     0.943050000000     0.024750000000    -0.650837   
O12      O      0.024950000000     0.024700000000     0.024520000000    -0.656264   
O13      O      0.983540000000     0.873590000000     0.917920000000    -0.376589   
O14      O      0.982700000000     0.098470000000     0.922240000000    -0.373326   
O15      O      0.872780000000     0.918250000000     0.986660000000    -0.375441   
O16      O      0.097260000000     0.922330000000     0.980150000000    -0.371716   
O17      O      0.095600000000     0.051170000000     0.983990000000    -0.374014   
O18      O      0.870820000000     0.048320000000     0.989920000000    -0.372486   
O19      O      0.917120000000     0.986030000000     0.873800000000    -0.377559   
O20      O      0.046220000000     0.989250000000     0.870340000000    -0.373889   
O21      O      0.870140000000     0.983610000000     0.922460000000    -0.375814   
O22      O      0.094430000000     0.989130000000     0.917360000000    -0.375587   
O23      O      0.921460000000     0.871760000000     0.983850000000    -0.373208   
O24      O      0.918560000000     0.095850000000     0.989570000000    -0.376466   
O25      O      0.047010000000     0.097690000000     0.985270000000    -0.373231   
O26      O      0.050850000000     0.873530000000     0.980150000000    -0.373335   
O27      O      0.981270000000     0.922160000000     0.870830000000    -0.376378   
O28      O      0.981240000000     0.051480000000     0.873540000000    -0.37545    
O29      O      0.022670000000     0.026370000000     0.944030000000    -0.507029   
O30      O      0.943790000000     0.945010000000     0.944820000000    -0.504308   
O31      O      0.942440000000     0.025080000000     0.946170000000    -0.648976   
O32      O      0.024010000000     0.945940000000     0.942340000000    -0.653398   
O33      O      0.988090000000     0.370620000000     0.422610000000    -0.374603   
O34      O      0.981370000000     0.595270000000     0.416300000000    -0.375586   
O35      O      0.919890000000     0.479600000000     0.371550000000    -0.375379   
O36      O      0.048850000000     0.485610000000     0.372720000000    -0.373129   
O37      O      0.096480000000     0.489420000000     0.420260000000    -0.373131   
O38      O      0.871940000000     0.477940000000     0.419220000000    -0.376068   
O39      O      0.982770000000     0.546100000000     0.369840000000    -0.375974   
O40      O      0.985420000000     0.417590000000     0.373960000000    -0.378473   
O41      O      0.022380000000     0.525470000000     0.443350000000    -0.507442   
O42      O      0.945920000000     0.441910000000     0.445160000000    -0.508519   
O43      O      0.942030000000     0.522290000000     0.442560000000    -0.656183   
O44      O      0.026050000000     0.445410000000     0.445430000000    -0.650155   
O45      O      0.977300000000     0.598690000000     0.545230000000    -0.374273   
O46      O      0.989660000000     0.374480000000     0.552260000000    -0.373825   
O47      O      0.869150000000     0.544510000000     0.481950000000    -0.371738   
O48      O      0.092980000000     0.554440000000     0.482070000000    -0.375429   
O49      O      0.098770000000     0.425340000000     0.487200000000    -0.374384   
O50      O      0.874630000000     0.415320000000     0.484250000000    -0.376198   
O51      O      0.918510000000     0.484260000000     0.596070000000    -0.376889   
O52      O      0.046820000000     0.490730000000     0.596680000000    -0.373036   
O53      O      0.871040000000     0.484480000000     0.547830000000    -0.376266   
O54      O      0.095490000000     0.491720000000     0.550120000000    -0.373258   
O55      O      0.914370000000     0.594320000000     0.480270000000    -0.374841   
O56      O      0.924260000000     0.369880000000     0.486290000000    -0.372816   
O57      O      0.053480000000     0.375550000000     0.488400000000    -0.375078   
O58      O      0.043310000000     0.599850000000     0.480920000000    -0.371698   
O59      O      0.978070000000     0.552700000000     0.594440000000    -0.37393    
O60      O      0.986960000000     0.423860000000     0.598050000000    -0.372708   
O61      O      0.025240000000     0.447780000000     0.525690000000    -0.506398   
O62      O      0.941600000000     0.524440000000     0.522730000000    -0.509797   
O63      O      0.945010000000     0.443860000000     0.525230000000    -0.653607   
O64      O      0.021810000000     0.528050000000     0.523480000000    -0.652958   
O65      O      0.597410000000     0.982060000000     0.422180000000    -0.374762   
O66      O      0.372970000000     0.985770000000     0.417490000000    -0.377786   
O67      O      0.487130000000     0.917320000000     0.373460000000    -0.376372   
O68      O      0.485060000000     0.046330000000     0.370830000000    -0.373816   
O69      O      0.484080000000     0.095260000000     0.417140000000    -0.375885   
O70      O      0.484980000000     0.871030000000     0.422340000000    -0.375041   
O71      O      0.421480000000     0.982890000000     0.370440000000    -0.37511    
O72      O      0.550400000000     0.980890000000     0.373520000000    -0.375783   
O73      O      0.444900000000     0.024060000000     0.442470000000    -0.508348   
O74      O      0.524290000000     0.943360000000     0.446150000000    -0.508045   
O75      O      0.443710000000     0.943790000000     0.444000000000    -0.655025   
O76      O      0.525210000000     0.023380000000     0.444110000000    -0.651171   
O77      O      0.369740000000     0.985500000000     0.546200000000    -0.377386   
O78      O      0.594490000000     0.983770000000     0.552100000000    -0.374327   
O79      O      0.418000000000     0.872950000000     0.486160000000    -0.375722   
O80      O      0.420500000000     0.097610000000     0.481250000000    -0.375348   
O81      O      0.549170000000     0.096440000000     0.484280000000    -0.375998   
O82      O      0.546910000000     0.871670000000     0.486420000000    -0.374632   
O83      O      0.479720000000     0.921930000000     0.598090000000    -0.37292    
O84      O      0.483780000000     0.051610000000     0.595380000000    -0.373484   
O85      O      0.481580000000     0.873610000000     0.550740000000    -0.379017   
O86      O      0.484860000000     0.097680000000     0.546340000000    -0.373747   
O87      O      0.370760000000     0.921280000000     0.483330000000    -0.37679    
O88      O      0.595330000000     0.918900000000     0.486910000000    -0.376118   
O89      O      0.596540000000     0.048220000000     0.486750000000    -0.37703    
O90      O      0.372070000000     0.050390000000     0.480530000000    -0.375305   
O91      O      0.416270000000     0.986950000000     0.595280000000    -0.377204   
O92      O      0.545240000000     0.985500000000     0.598030000000    -0.373678   
O93      O      0.523120000000     0.024970000000     0.524570000000    -0.505412   
O94      O      0.442150000000     0.945680000000     0.524390000000    -0.508982   
O95      O      0.522400000000     0.944930000000     0.526250000000    -0.65263    
O96      O      0.442960000000     0.026070000000     0.522910000000    -0.65298    
O97      O      0.419650000000     0.372150000000     0.985260000000    -0.378134   
O98      O      0.419120000000     0.596700000000     0.984940000000    -0.374615   
O99      O      0.372860000000     0.483630000000     0.051250000000    -0.375061   
O100     O      0.370280000000     0.485800000000     0.921530000000    -0.373871   
O101     O      0.417560000000     0.484820000000     0.873140000000    -0.376911   
O102     O      0.421570000000     0.482880000000     0.098230000000    -0.375405   
O103     O      0.371280000000     0.548910000000     0.986260000000    -0.377283   
O104     O      0.371610000000     0.419730000000     0.986720000000    -0.377788   
O105     O      0.443000000000     0.524610000000     0.945320000000    -0.508069   
O106     O      0.444510000000     0.444440000000     0.025280000000    -0.506093   
O107     O      0.444230000000     0.524430000000     0.025680000000    -0.652343   
O108     O      0.442950000000     0.444570000000     0.944820000000    -0.652516   
O109     O      0.547930000000     0.597140000000     0.984090000000    -0.375873   
O110     O      0.548140000000     0.372330000000     0.981950000000    -0.377115   
O111     O      0.486350000000     0.548860000000     0.097100000000    -0.377037   
O112     O      0.480000000000     0.550010000000     0.872240000000    -0.374348   
O113     O      0.482150000000     0.420290000000     0.871960000000    -0.373916   
O114     O      0.486320000000     0.419830000000     0.096790000000    -0.378173   
O115     O      0.597200000000     0.485640000000     0.046810000000    -0.372951   
O116     O      0.595130000000     0.485290000000     0.917930000000    -0.377698   
O117     O      0.550800000000     0.485880000000     0.095630000000    -0.37474    
O118     O      0.546340000000     0.481910000000     0.871120000000    -0.374663   
O119     O      0.484760000000     0.596730000000     0.049310000000    -0.377257   
O120     O      0.484260000000     0.372160000000     0.048800000000    -0.375836   
O121     O      0.483150000000     0.372460000000     0.919820000000    -0.376373   
O122     O      0.480930000000     0.596650000000     0.920840000000    -0.375437   
O123     O      0.595950000000     0.549510000000     0.983660000000    -0.374427   
O124     O      0.596240000000     0.419910000000     0.982180000000    -0.374015   
O125     O      0.523190000000     0.444780000000     0.943550000000    -0.508023   
O126     O      0.524730000000     0.524600000000     0.024060000000    -0.507639   
O127     O      0.524920000000     0.444360000000     0.023850000000    -0.652475   
O128     O      0.523300000000     0.525090000000     0.943520000000    -0.653181   
S1       S      0.459700000000     0.061250000000     0.295870000000    -0.0197682  
S2       S      0.510410000000     0.795960000000     0.408110000000    -0.0220201  
S3       S      0.453640000000     0.670770000000     0.907060000000    -0.0220113  
S4       S      0.500730000000     0.174820000000     0.559630000000    -0.0223617  
S5       S      0.911110000000     0.292450000000     0.469320000000    -0.0227635  
S6       S      0.791740000000     0.556860000000     0.465580000000    -0.0246894  
S7       S      0.175720000000     0.412480000000     0.506080000000    -0.0245954  
S8       S      0.056980000000     0.676090000000     0.459300000000    -0.018908   
S9       S      0.672030000000     0.511020000000     0.062140000000    -0.0202635  
S10      S      0.065040000000     0.513070000000     0.298530000000    -0.0197308  
S11      S      0.061010000000     0.518330000000     0.670810000000    -0.0233669  
S12      S      0.571070000000     0.430040000000     0.810560000000    -0.0204785  
S13      S      0.907070000000     0.795490000000     0.004520000000    -0.0238539  
S14      S      0.902920000000     0.169350000000     0.017990000000    -0.0205302  
S15      S      0.171700000000     0.907560000000     0.953750000000    -0.0192403  
S16      S      0.061920000000     0.173230000000     0.007560000000    -0.0185645  
S17      S      0.558560000000     0.961150000000     0.673320000000    -0.0243473  
S18      S      0.167640000000     0.017410000000     0.900120000000    -0.0192268  
S19      S      0.172560000000     0.956540000000     0.059450000000    -0.0129838  
S20      S      0.910530000000     0.000490000000     0.175160000000    -0.012192   
S21      S      0.012750000000     0.410730000000     0.673210000000    -0.0135092  
S22      S      0.951800000000     0.673650000000     0.559060000000    -0.0214936  
S23      S      0.017870000000     0.900670000000     0.168060000000    -0.0161221  
S24      S      0.010950000000     0.060220000000     0.172900000000    -0.0192719  
Zr1      Zr     0.986490000000     0.982850000000     0.063860000000     1.43588    
Zr2      Zr     0.985580000000     0.904860000000     0.982900000000     1.42647    
Zr3      Zr     0.983170000000     0.064440000000     0.986200000000     1.43009    
Zr4      Zr     0.904040000000     0.983690000000     0.986600000000     1.41725    
Zr5      Zr     0.063790000000     0.986140000000     0.982370000000     1.43583    
Zr6      Zr     0.982310000000     0.986270000000     0.904580000000     1.42374    
Zr7      Zr     0.984210000000     0.482770000000     0.404570000000     1.43204    
Zr8      Zr     0.980290000000     0.564620000000     0.481760000000     1.43334    
Zr9      Zr     0.987450000000     0.404950000000     0.486500000000     1.42568    
Zr10     Zr     0.904130000000     0.481370000000     0.483700000000     1.4331     
Zr11     Zr     0.063650000000     0.488440000000     0.484870000000     1.42845    
Zr12     Zr     0.982930000000     0.487210000000     0.563750000000     1.43279    
Zr13     Zr     0.485320000000     0.982600000000     0.404570000000     1.43014    
Zr14     Zr     0.403890000000     0.985450000000     0.482610000000     1.42956    
Zr15     Zr     0.563640000000     0.983850000000     0.486320000000     1.42473    
Zr16     Zr     0.482800000000     0.904940000000     0.485920000000     1.43487    
Zr17     Zr     0.484510000000     0.064190000000     0.482540000000     1.43176    
Zr18     Zr     0.481630000000     0.986160000000     0.564300000000     1.42766    
Zr19     Zr     0.403860000000     0.484430000000     0.985880000000     1.42611    
Zr20     Zr     0.483660000000     0.564150000000     0.984920000000     1.43177    
Zr21     Zr     0.483870000000     0.404940000000     0.984300000000     1.42954    
Zr22     Zr     0.485480000000     0.484370000000     0.064450000000     1.42892    
Zr23     Zr     0.482420000000     0.484920000000     0.904520000000     1.42958    
Zr24     Zr     0.563690000000     0.484750000000     0.982950000000     1.42837    


