data_structure

_audit_creation_method RASPA-1.0
_audit_creation_date 2023-5-19
_audit_author_name 'Poobodin Mano'

_cell_length_a    33.691
_cell_length_b    33.7584
_cell_length_c    33.78
_cell_angle_alpha 90
_cell_angle_beta  90
_cell_angle_gamma 90
_cell_volume      38419.8

_symmetry_cell_setting          triclinic
_symmetry_space_group_name_Hall 'P 1'
_symmetry_space_group_name_H-M  'P 1'
_symmetry_Int_Tables_number     1

_symmetry_equiv_pos_as_xyz 'x,y,z'

loop_
_atom_site_label
_atom_site_type_symbol
_atom_site_fract_x
_atom_site_fract_y
_atom_site_fract_z
_atom_site_charge
C1       C      0.985610000000     0.085750000000     0.085560000000     0.396087   
C2       C      0.988240000000     0.882680000000     0.085330000000     0.396575   
C3       C      0.885160000000     0.985430000000     0.085450000000     0.39715    
C4       C      0.088550000000     0.983800000000     0.085270000000     0.396608   
C5       C      0.985570000000     0.883010000000     0.883150000000     0.397516   
C6       C      0.987360000000     0.085650000000     0.882740000000     0.396155   
C7       C      0.885430000000     0.882960000000     0.983560000000     0.398672   
C8       C      0.087880000000     0.883130000000     0.986700000000     0.397992   
C9       C      0.087760000000     0.085970000000     0.982470000000     0.396297   
C10      C      0.884370000000     0.084830000000     0.985370000000     0.39786    
C11      C      0.884900000000     0.983290000000     0.883600000000     0.396983   
C12      C      0.087970000000     0.983380000000     0.882870000000     0.395591   
C13      C      0.984530000000     0.381300000000     0.385200000000     0.39559    
C14      C      0.982720000000     0.584200000000     0.381190000000     0.395589   
C15      C      0.883300000000     0.478150000000     0.384520000000     0.398831   
C16      C      0.085860000000     0.485120000000     0.381210000000     0.397681   
C17      C      0.985350000000     0.588290000000     0.583480000000     0.396964   
C18      C      0.988750000000     0.385660000000     0.587760000000     0.39642    
C19      C      0.883930000000     0.585350000000     0.482590000000     0.397507   
C20      C      0.086750000000     0.586860000000     0.479660000000     0.396656   
C21      C      0.088330000000     0.384490000000     0.485420000000     0.396778   
C22      C      0.885430000000     0.382700000000     0.489720000000     0.396455   
C23      C      0.886190000000     0.490480000000     0.587000000000     0.39806    
C24      C      0.089470000000     0.486370000000     0.583750000000     0.396844   
C25      C      0.588210000000     0.984820000000     0.383400000000     0.39724    
C26      C      0.385120000000     0.986930000000     0.383380000000     0.397483   
C27      C      0.488170000000     0.885130000000     0.381080000000     0.396603   
C28      C      0.485160000000     0.087800000000     0.385090000000     0.396794   
C29      C      0.384750000000     0.982360000000     0.585160000000     0.396999   
C30      C      0.587900000000     0.985350000000     0.585740000000     0.397301   
C31      C      0.386000000000     0.882560000000     0.483840000000     0.397631   
C32      C      0.384340000000     0.085160000000     0.485120000000     0.397116   
C33      C      0.587800000000     0.085860000000     0.486600000000     0.397601   
C34      C      0.588700000000     0.884200000000     0.482760000000     0.398115   
C35      C      0.486320000000     0.881150000000     0.583740000000     0.396552   
C36      C      0.486610000000     0.083960000000     0.587810000000     0.396959   
C37      C      0.383520000000     0.385190000000     0.983310000000     0.396916   
C38      C      0.586580000000     0.381940000000     0.985470000000     0.397598   
C39      C      0.484630000000     0.383920000000     0.882520000000     0.396828   
C40      C      0.485870000000     0.382360000000     0.085030000000     0.396814   
C41      C      0.589970000000     0.583950000000     0.983710000000     0.398414   
C42      C      0.387200000000     0.587730000000     0.986760000000     0.398028   
C43      C      0.588670000000     0.484960000000     0.883900000000     0.397437   
C44      C      0.588070000000     0.481480000000     0.085600000000     0.398057   
C45      C      0.385330000000     0.486590000000     0.085740000000     0.397892   
C46      C      0.385290000000     0.485620000000     0.883260000000     0.397217   
C47      C      0.488620000000     0.586520000000     0.883870000000     0.396719   
C48      C      0.487550000000     0.585160000000     0.086270000000     0.396614   
C49      C      0.485730000000     0.284520000000     0.135460000000    -0.0953683  
C50      C      0.483910000000     0.156330000000     0.367260000000     0.0716746  
C51      C      0.484600000000     0.107210000000     0.317140000000     0.0719304  
C52      C      0.483300000000     0.186250000000     0.338660000000    -0.0925776  
C53      C      0.459480000000     0.203040000000     0.233100000000    -0.035169   
C54      C      0.459700000000     0.231850000000     0.203420000000    -0.0348881  
C55      C      0.482650000000     0.207770000000     0.267390000000    -0.00627215 
C56      C      0.483970000000     0.136350000000     0.287850000000    -0.0921506  
C57      C      0.483070000000     0.266130000000     0.207290000000    -0.00714352 
C58      C      0.483610000000     0.336590000000     0.183670000000    -0.0935379  
C59      C      0.505820000000     0.271160000000     0.241820000000    -0.0348903  
C60      C      0.484380000000     0.364320000000     0.153050000000     0.0704398  
C61      C      0.486600000000     0.312840000000     0.105100000000     0.085992   
C62      C      0.505620000000     0.242300000000     0.271530000000    -0.0353579  
C63      C      0.489090000000     0.297240000000     0.065210000000     0.0395283  
C64      C      0.483260000000     0.176460000000     0.298370000000     0.0494112  
C65      C      0.484090000000     0.296170000000     0.175110000000     0.0512794  
C66      C      0.489900000000     0.835700000000     0.282760000000    -0.0949772  
C67      C      0.487230000000     0.603660000000     0.154550000000     0.0718747  
C68      C      0.488480000000     0.653350000000     0.105020000000     0.0717665  
C69      C      0.487610000000     0.632520000000     0.184210000000    -0.0924346  
C70      C      0.465440000000     0.700500000000     0.239200000000    -0.0351548  
C71      C      0.465680000000     0.730160000000     0.268110000000    -0.0347515  
C72      C      0.489250000000     0.703910000000     0.205180000000    -0.00607226 
C73      C      0.488960000000     0.682930000000     0.133910000000    -0.0912092  
C74      C      0.489730000000     0.763910000000     0.263670000000    -0.00676186 
C75      C      0.488650000000     0.786890000000     0.334300000000    -0.092718   
C76      C      0.513790000000     0.767130000000     0.229810000000    -0.034709   
C77      C      0.488350000000     0.817250000000     0.362320000000     0.0705896  
C78      C      0.489580000000     0.865810000000     0.311380000000     0.0859877  
C79      C      0.513530000000     0.737510000000     0.200920000000    -0.0349978  
C80      C      0.490340000000     0.905950000000     0.296200000000     0.0394461  
C81      C      0.488590000000     0.672730000000     0.174090000000     0.0493395  
C82      C      0.489450000000     0.795870000000     0.293990000000     0.0512978  
C83      C      0.486120000000     0.782800000000     0.633240000000    -0.0950608  
C84      C      0.488930000000     0.654880000000     0.865410000000     0.0716715  
C85      C      0.488370000000     0.605300000000     0.815740000000     0.0718587  
C86      C      0.488530000000     0.684550000000     0.836550000000    -0.0916203  
C87      C      0.462920000000     0.700820000000     0.731450000000    -0.0350872  
C88      C      0.462500000000     0.729640000000     0.701760000000    -0.0348074  
C89      C      0.486970000000     0.705460000000     0.765150000000    -0.00616952 
C90      C      0.487900000000     0.634200000000     0.786180000000    -0.0927767  
C91      C      0.486130000000     0.763810000000     0.705020000000    -0.00677234 
C92      C      0.486280000000     0.834440000000     0.681950000000    -0.0927724  
C93      C      0.509930000000     0.768640000000     0.738880000000    -0.0347142  
C94      C      0.486250000000     0.862430000000     0.651580000000     0.0706271  
C95      C      0.486130000000     0.811400000000     0.603110000000     0.0859775  
C96      C      0.510340000000     0.739800000000     0.768600000000    -0.035055   
C97      C      0.486060000000     0.796160000000     0.563010000000     0.0391241  
C98      C      0.487840000000     0.674400000000     0.796360000000     0.0494614  
C99      C      0.486160000000     0.794090000000     0.673030000000     0.0513319  
C100     C      0.486550000000     0.133380000000     0.686140000000    -0.0951655  
C101     C      0.484050000000     0.365460000000     0.814220000000     0.0715437  
C102     C      0.483670000000     0.315740000000     0.863750000000     0.0717058  
C103     C      0.483750000000     0.336600000000     0.784560000000    -0.0926595  
C104     C      0.460100000000     0.230860000000     0.768070000000    -0.0350779  
C105     C      0.460550000000     0.201190000000     0.739250000000    -0.0348683  
C106     C      0.483330000000     0.265180000000     0.763580000000    -0.00634922 
C107     C      0.483360000000     0.286170000000     0.834850000000    -0.0921947  
C108     C      0.484210000000     0.205100000000     0.705190000000    -0.00706375 
C109     C      0.484780000000     0.182160000000     0.634590000000    -0.0935221  
C110     C      0.507160000000     0.239560000000     0.700480000000    -0.0349033  
C111     C      0.485440000000     0.151820000000     0.606570000000     0.0707341  
C112     C      0.487330000000     0.103280000000     0.657520000000     0.0860881  
C113     C      0.506750000000     0.269240000000     0.729350000000    -0.0353163  
C114     C      0.489410000000     0.063180000000     0.672680000000     0.039943   
C115     C      0.483420000000     0.296370000000     0.794680000000     0.0494057  
C116     C      0.485150000000     0.173170000000     0.674890000000     0.0514333  
C117     C      0.789100000000     0.331350000000     0.501480000000    -0.094285   
C118     C      0.656150000000     0.103850000000     0.482610000000     0.0725822  
C119     C      0.607400000000     0.153710000000     0.491180000000     0.0722762  
C120     C      0.686190000000     0.132300000000     0.482390000000    -0.0903186  
C121     C      0.745700000000     0.195550000000     0.504420000000    -0.0346232  
C122     C      0.775380000000     0.224480000000     0.504550000000    -0.0347626  
C123     C      0.708540000000     0.203150000000     0.486920000000    -0.0058827  
C124     C      0.636780000000     0.182920000000     0.491510000000    -0.0920939  
C125     C      0.768410000000     0.261790000000     0.487600000000    -0.0063311  
C126     C      0.838540000000     0.285190000000     0.479340000000    -0.091902   
C127     C      0.731450000000     0.269430000000     0.469960000000    -0.0349406  
C128     C      0.866730000000     0.315490000000     0.480540000000     0.071898   
C129     C      0.818010000000     0.361090000000     0.503180000000     0.0906195  
C130     C      0.701930000000     0.240400000000     0.469430000000    -0.0345131  
C131     C      0.805760000000     0.398110000000     0.520970000000     0.0456217  
C132     C      0.676800000000     0.172450000000     0.486950000000     0.0494979  
C133     C      0.799120000000     0.293170000000     0.489220000000     0.0521843  
C134     C      0.787680000000     0.636990000000     0.471470000000    -0.0939377  
C135     C      0.657000000000     0.866070000000     0.487500000000     0.0727211  
C136     C      0.608120000000     0.816370000000     0.478660000000     0.0731649  
C137     C      0.686860000000     0.837420000000     0.488430000000    -0.0901598  
C138     C      0.746160000000     0.773270000000     0.468070000000    -0.0342665  
C139     C      0.775370000000     0.743890000000     0.468460000000    -0.0346232  
C140     C      0.708650000000     0.766260000000     0.485050000000    -0.00563834 
C141     C      0.637280000000     0.787020000000     0.479000000000    -0.0911803  
C142     C      0.767560000000     0.706730000000     0.485380000000    -0.00599932 
C143     C      0.837020000000     0.682470000000     0.495200000000    -0.0904215  
C144     C      0.730280000000     0.699690000000     0.502550000000    -0.0348504  
C145     C      0.864980000000     0.652030000000     0.494010000000     0.0760117  
C146     C      0.816440000000     0.607080000000     0.469740000000     0.0916239  
C147     C      0.701240000000     0.729190000000     0.502620000000    -0.0343953  
C148     C      0.804270000000     0.570350000000     0.451330000000     0.0457887  
C149     C      0.677250000000     0.797270000000     0.484160000000     0.0497447  
C150     C      0.797820000000     0.674960000000     0.484290000000     0.0528052  
C151     C      0.285980000000     0.134950000000     0.485250000000    -0.0953506  
C152     C      0.156870000000     0.366370000000     0.485090000000     0.0716963  
C153     C      0.107460000000     0.316390000000     0.486060000000     0.0719926  
C154     C      0.186750000000     0.337680000000     0.484840000000    -0.0913194  
C155     C      0.242740000000     0.270490000000     0.507260000000    -0.0353804  
C156     C      0.271850000000     0.240960000000     0.507050000000    -0.0346969  
C157     C      0.208140000000     0.266410000000     0.484340000000    -0.00587434 
C158     C      0.136590000000     0.286980000000     0.485730000000    -0.0913023  
C159     C      0.267010000000     0.206680000000     0.483900000000    -0.0071121  
C160     C      0.337830000000     0.183580000000     0.484140000000    -0.0934914  
C161     C      0.232610000000     0.202850000000     0.460640000000    -0.0346075  
C162     C      0.365830000000     0.153120000000     0.484480000000     0.0706956  
C163     C      0.314560000000     0.104760000000     0.485630000000     0.0861667  
C164     C      0.203530000000     0.232330000000     0.460880000000    -0.0352412  
C165     C      0.299150000000     0.064700000000     0.487030000000     0.0393375  
C166     C      0.176810000000     0.297410000000     0.485020000000     0.0491792  
C167     C      0.297380000000     0.174710000000     0.484390000000     0.0515261  
C168     C      0.137250000000     0.684420000000     0.474590000000    -0.0948251  
C169     C      0.367930000000     0.814200000000     0.485740000000     0.0718632  
C170     C      0.317800000000     0.863340000000     0.482530000000     0.0719504  
C171     C      0.339280000000     0.784310000000     0.485980000000    -0.0914099  
C172     C      0.273800000000     0.727070000000     0.463240000000    -0.0349268  
C173     C      0.244410000000     0.697840000000     0.462700000000    -0.0347626  
C174     C      0.267950000000     0.762620000000     0.484200000000    -0.00602629 
C175     C      0.288410000000     0.834180000000     0.482490000000    -0.0918192  
C176     C      0.208420000000     0.703610000000     0.482870000000    -0.00658187 
C177     C      0.185190000000     0.633130000000     0.485820000000    -0.0920814  
C178     C      0.202660000000     0.738950000000     0.504090000000    -0.0348645  
C179     C      0.154680000000     0.605180000000     0.484620000000     0.070549   
C180     C      0.107110000000     0.655850000000     0.473020000000     0.0874811  
C181     C      0.232110000000     0.768050000000     0.504850000000    -0.034689   
C182     C      0.068020000000     0.670460000000     0.462930000000     0.0446782  
C183     C      0.298920000000     0.794060000000     0.484270000000     0.0494159  
C184     C      0.176580000000     0.673280000000     0.481240000000     0.0516433  
C185     C      0.786340000000     0.466130000000     0.334180000000    -0.0943374  
C186     C      0.656370000000     0.483550000000     0.104260000000     0.0718583  
C187     C      0.606780000000     0.476940000000     0.153580000000     0.0724405  
C188     C      0.686030000000     0.483150000000     0.133130000000    -0.091406   
C189     C      0.743750000000     0.459970000000     0.197750000000    -0.0347822  
C190     C      0.772920000000     0.459470000000     0.227160000000    -0.0349845  
C191     C      0.707100000000     0.478860000000     0.204390000000    -0.00623331 
C192     C      0.635700000000     0.476050000000     0.183140000000    -0.0926689  
C193     C      0.765940000000     0.477460000000     0.263980000000    -0.00658159 
C194     C      0.836040000000     0.485300000000     0.287030000000    -0.0930464  
C195     C      0.729420000000     0.496330000000     0.270710000000    -0.035003   
C196     C      0.864240000000     0.484950000000     0.317230000000     0.0723484  
C197     C      0.815290000000     0.465310000000     0.363950000000     0.0909177  
C198     C      0.700410000000     0.497210000000     0.241190000000    -0.0345459  
C199     C      0.802670000000     0.450070000000     0.401940000000     0.0492197  
C200     C      0.675930000000     0.479340000000     0.173180000000     0.0496584  
C201     C      0.796520000000     0.476410000000     0.295470000000     0.0525071  
C202     C      0.135180000000     0.486590000000     0.282850000000    -0.0953462  
C203     C      0.316990000000     0.488040000000     0.104510000000     0.0720004  
C204     C      0.366870000000     0.487030000000     0.153980000000     0.0719602  
C205     C      0.287420000000     0.488520000000     0.133470000000    -0.0928635  
C206     C      0.232670000000     0.512260000000     0.200750000000    -0.0350594  
C207     C      0.203170000000     0.512120000000     0.229800000000    -0.0350051  
C208     C      0.266650000000     0.488460000000     0.204830000000    -0.00661404 
C209     C      0.338040000000     0.487480000000     0.183670000000    -0.0930702  
C210     C      0.206940000000     0.488160000000     0.263640000000    -0.00696579 
C211     C      0.184180000000     0.487100000000     0.334320000000    -0.0928705  
C212     C      0.241080000000     0.464620000000     0.267920000000    -0.0350091  
C213     C      0.153830000000     0.486340000000     0.362390000000     0.0708456  
C214     C      0.105090000000     0.485760000000     0.311500000000     0.0862186  
C215     C      0.270590000000     0.464750000000     0.238840000000    -0.0352848  
C216     C      0.064860000000     0.484950000000     0.296330000000     0.0387373  
C217     C      0.297740000000     0.488190000000     0.173630000000     0.0496527  
C218     C      0.175070000000     0.487330000000     0.294030000000     0.0514266  
C219     C      0.188130000000     0.486120000000     0.632990000000    -0.0954049  
C220     C      0.316860000000     0.485810000000     0.864690000000     0.0714121  
C221     C      0.366580000000     0.485190000000     0.815060000000     0.0715932  
C222     C      0.287160000000     0.485650000000     0.835830000000    -0.0929454  
C223     C      0.231910000000     0.508410000000     0.768330000000    -0.0356372  
C224     C      0.202860000000     0.508470000000     0.738760000000    -0.0352472  
C225     C      0.266160000000     0.484900000000     0.764480000000    -0.00667828 
C226     C      0.337630000000     0.484980000000     0.785480000000    -0.092901   
C227     C      0.207400000000     0.485040000000     0.704640000000    -0.00724529 
C228     C      0.136530000000     0.485740000000     0.681850000000    -0.0935551  
C229     C      0.241490000000     0.461300000000     0.700960000000    -0.0350965  
C230     C      0.108380000000     0.486090000000     0.651560000000     0.0704863  
C231     C      0.159390000000     0.486540000000     0.602950000000     0.0858032  
C232     C      0.270510000000     0.461240000000     0.730510000000    -0.035293   
C233     C      0.174580000000     0.487400000000     0.562820000000     0.0384264  
C234     C      0.297340000000     0.485180000000     0.795640000000     0.0492403  
C235     C      0.176930000000     0.485610000000     0.672790000000     0.0511613  
C236     C      0.789920000000     0.503100000000     0.638460000000    -0.0938667  
C237     C      0.657220000000     0.482220000000     0.866280000000     0.0720128  
C238     C      0.608550000000     0.490020000000     0.816190000000     0.0720518  
C239     C      0.687430000000     0.483090000000     0.838010000000    -0.0921332  
C240     C      0.740890000000     0.461960000000     0.767790000000    -0.0355244  
C241     C      0.770430000000     0.463240000000     0.738730000000    -0.0345234  
C242     C      0.709820000000     0.489730000000     0.767680000000    -0.00631884 
C243     C      0.638100000000     0.491510000000     0.787210000000    -0.0929249  
C244     C      0.769740000000     0.492560000000     0.709130000000    -0.00663047 
C245     C      0.839970000000     0.484000000000     0.685200000000    -0.0928901  
C246     C      0.738980000000     0.520790000000     0.709630000000    -0.0344708  
C247     C      0.867930000000     0.484100000000     0.654660000000     0.0715466  
C248     C      0.818550000000     0.503600000000     0.608420000000     0.0904471  
C249     C      0.709250000000     0.519220000000     0.738400000000    -0.0351153  
C250     C      0.805380000000     0.518420000000     0.570430000000     0.049275   
C251     C      0.678050000000     0.488000000000     0.798000000000     0.049715   
C252     C      0.800310000000     0.493170000000     0.677270000000     0.0518996  
C253     C      0.688560000000     0.633110000000     0.982010000000    -0.0958949  
C254     C      0.817050000000     0.864480000000     0.983090000000     0.07203    
C255     C      0.866770000000     0.814770000000     0.982540000000     0.0720514  
C256     C      0.787360000000     0.835670000000     0.982610000000    -0.0930668  
C257     C      0.732450000000     0.768020000000     0.005440000000    -0.0337616  
C258     C      0.703410000000     0.738480000000     0.005380000000    -0.0334168  
C259     C      0.766410000000     0.764430000000     0.981540000000    -0.0080657  
C260     C      0.837810000000     0.785220000000     0.981980000000    -0.0934372  
C261     C      0.707710000000     0.704730000000     0.981400000000    -0.00862151 
C262     C      0.636940000000     0.682020000000     0.982500000000    -0.0936297  
C263     C      0.741510000000     0.701320000000     0.957250000000    -0.0347692  
C264     C      0.608820000000     0.651750000000     0.983050000000     0.0707574  
C265     C      0.659850000000     0.603080000000     0.982600000000     0.08623    
C266     C      0.770550000000     0.730830000000     0.957330000000    -0.0350007  
C267     C      0.675030000000     0.562910000000     0.982660000000     0.0388244  
C268     C      0.797560000000     0.795490000000     0.982020000000     0.0501301  
C269     C      0.677310000000     0.672910000000     0.981920000000     0.0519144  
C270     C      0.785580000000     0.133590000000     0.986270000000    -0.0960118  
C271     C      0.654890000000     0.363460000000     0.986520000000     0.0719799  
C272     C      0.605290000000     0.313660000000     0.986220000000     0.071767   
C273     C      0.684660000000     0.334760000000     0.986990000000    -0.0926651  
C274     C      0.740460000000     0.268110000000     0.964230000000    -0.0352952  
C275     C      0.770010000000     0.239070000000     0.964510000000    -0.0347363  
C276     C      0.706080000000     0.263720000000     0.987440000000    -0.0076386  
C277     C      0.634390000000     0.284160000000     0.986730000000    -0.091587   
C278     C      0.765820000000     0.204960000000     0.987970000000    -0.00875801 
C279     C      0.836920000000     0.182770000000     0.987510000000    -0.0939131  
C280     C      0.731580000000     0.200720000000     0.011410000000    -0.0331668  
C281     C      0.865260000000     0.152620000000     0.986810000000     0.0705024  
C282     C      0.814450000000     0.103750000000     0.985510000000     0.0863029  
C283     C      0.702050000000     0.229750000000     0.011120000000    -0.0336047  
C284     C      0.799360000000     0.063570000000     0.983960000000     0.0393072  
C285     C      0.674640000000     0.294560000000     0.987050000000     0.0497322  
C286     C      0.796570000000     0.173430000000     0.987360000000     0.0518959  
C287     C      0.337870000000     0.686010000000     0.991590000000    -0.0959485  
C288     C      0.106330000000     0.814870000000     0.985370000000     0.072376   
C289     C      0.155910000000     0.864160000000     0.992350000000     0.0730429  
C290     C      0.135120000000     0.785150000000     0.986190000000    -0.0926108  
C291     C      0.203940000000     0.731330000000     0.964610000000    -0.0352543  
C292     C      0.233480000000     0.702290000000     0.964570000000    -0.034567   
C293     C      0.206340000000     0.763910000000     0.990440000000    -0.00709191 
C294     C      0.185450000000     0.835190000000     0.993280000000    -0.0893357  
C295     C      0.266120000000     0.705210000000     0.990300000000    -0.00879203 
C296     C      0.288920000000     0.634660000000     0.986850000000    -0.0942741  
C297     C      0.268370000000     0.737610000000     0.016340000000    -0.0328421  
C298     C      0.319260000000     0.606590000000     0.986110000000     0.0706417  
C299     C      0.367960000000     0.657360000000     0.990740000000     0.0862226  
C300     C      0.238820000000     0.766620000000     0.016420000000    -0.0335142  
C301     C      0.408170000000     0.672390000000     0.993420000000     0.039281   
C302     C      0.175260000000     0.795120000000     0.990030000000     0.0497494  
C303     C      0.298010000000     0.674860000000     0.989630000000     0.0520342  
C304     C      0.185130000000     0.137370000000     0.978820000000    -0.0955698  
C305     C      0.314820000000     0.367770000000     0.984760000000     0.0715853  
C306     C      0.363670000000     0.317320000000     0.982120000000     0.0718469  
C307     C      0.284650000000     0.339390000000     0.985350000000    -0.0929635  
C308     C      0.226970000000     0.273540000000     0.963930000000    -0.0350708  
C309     C      0.197720000000     0.244140000000     0.964030000000    -0.0347827  
C310     C      0.262500000000     0.268300000000     0.985190000000    -0.00779679 
C311     C      0.334240000000     0.288210000000     0.982550000000    -0.0922103  
C312     C      0.203460000000     0.208790000000     0.985240000000    -0.00856456 
C313     C      0.132970000000     0.184900000000     0.987380000000    -0.0937938  
C314     C      0.238680000000     0.203810000000     0.006950000000    -0.033347   
C315     C      0.105340000000     0.154100000000     0.986410000000     0.0706687  
C316     C      0.156910000000     0.106910000000     0.977550000000     0.0872376  
C317     C      0.267810000000     0.233220000000     0.007000000000    -0.0335344  
C318     C      0.172430000000     0.067740000000     0.969680000000     0.0439288  
C319     C      0.294140000000     0.299030000000     0.984340000000     0.0496691  
C320     C      0.173390000000     0.176670000000     0.983960000000     0.052046   
C321     C      0.685910000000     0.988660000000     0.635870000000    -0.0957727  
C322     C      0.816350000000     0.981630000000     0.865800000000     0.0720742  
C323     C      0.865450000000     0.984110000000     0.815610000000     0.071716   
C324     C      0.786310000000     0.981300000000     0.837330000000    -0.091683   
C325     C      0.729100000000     0.003850000000     0.771680000000    -0.0334248  
C326     C      0.699710000000     0.004050000000     0.742450000000    -0.0330559  
C327     C      0.764370000000     0.982190000000     0.766290000000    -0.00749074 
C328     C      0.836130000000     0.983910000000     0.786390000000    -0.0916909  
C329     C      0.705020000000     0.982740000000     0.707120000000    -0.00834533 
C330     C      0.634230000000     0.981060000000     0.684080000000    -0.0925862  
C331     C      0.740060000000     0.960750000000     0.701900000000    -0.0346895  
C332     C      0.606240000000     0.981950000000     0.653630000000     0.0709217  
C333     C      0.657350000000     0.989800000000     0.605750000000     0.0871506  
C334     C      0.769350000000     0.960430000000     0.731150000000    -0.0347204  
C335     C      0.672510000000     0.996530000000     0.566180000000     0.039823   
C336     C      0.795970000000     0.982450000000     0.797040000000     0.0496674  
C337     C      0.674590000000     0.984050000000     0.675340000000     0.0519929  
C338     C      0.184990000000     0.975320000000     0.831800000000    -0.0952239  
C339     C      0.316310000000     0.985990000000     0.602970000000     0.0717912  
C340     C      0.365160000000     0.979820000000     0.653060000000     0.0723207  
C341     C      0.286290000000     0.987060000000     0.631420000000    -0.091331   
C342     C      0.227250000000     0.966890000000     0.695880000000    -0.0345054  
C343     C      0.197770000000     0.967520000000     0.724990000000    -0.034397   
C344     C      0.264130000000     0.985380000000     0.702440000000    -0.007265   
C345     C      0.335830000000     0.980450000000     0.682270000000    -0.0915804  
C346     C      0.204640000000     0.986300000000     0.761440000000    -0.00837587 
C347     C      0.134420000000     0.993140000000     0.785070000000    -0.0943576  
C348     C      0.241280000000     0.005060000000     0.767940000000    -0.0329278  
C349     C      0.106420000000     0.991880000000     0.815510000000     0.0721472  
C350     C      0.156310000000     0.973550000000     0.861770000000     0.0885009  
C351     C      0.270610000000     0.004770000000     0.738730000000    -0.0329976  
C352     C      0.169820000000     0.958430000000     0.899520000000     0.044614   
C353     C      0.295780000000     0.984280000000     0.671690000000     0.0497287  
C354     C      0.174250000000     0.985250000000     0.793180000000     0.0531571  
C355     C      0.186580000000     0.982230000000     0.135460000000    -0.0958487  
C356     C      0.316620000000     0.988930000000     0.365480000000     0.0718778  
C357     C      0.365820000000     0.987200000000     0.315350000000     0.07185    
C358     C      0.286630000000     0.989510000000     0.336980000000    -0.0918145  
C359     C      0.229760000000     0.966870000000     0.271170000000    -0.0349294  
C360     C      0.200410000000     0.966520000000     0.241930000000    -0.0344742  
C361     C      0.264780000000     0.988970000000     0.265950000000    -0.00751317 
C362     C      0.336540000000     0.987640000000     0.286080000000    -0.0917609  
C363     C      0.205500000000     0.988130000000     0.206750000000    -0.00867554 
C364     C      0.134740000000     0.988890000000     0.183640000000    -0.093917   
C365     C      0.240270000000     0.010560000000     0.201710000000    -0.0331575  
C366     C      0.106790000000     0.987540000000     0.153170000000     0.0707042  
C367     C      0.158060000000     0.980630000000     0.105320000000     0.087052   
C368     C      0.269540000000     0.011030000000     0.230970000000    -0.033368   
C369     C      0.173380000000     0.974050000000     0.065820000000     0.0424211  
C370     C      0.296350000000     0.988770000000     0.296700000000     0.0496767  
C371     C      0.175140000000     0.986560000000     0.174930000000     0.0521382  
C372     C      0.686330000000     0.982010000000     0.333420000000    -0.0956301  
C373     C      0.816640000000     0.987640000000     0.103340000000     0.0718019  
C374     C      0.865800000000     0.985320000000     0.153470000000     0.0717833  
C375     C      0.786640000000     0.988310000000     0.131840000000    -0.0919514  
C376     C      0.729480000000     0.966150000000     0.197640000000    -0.0347155  
C377     C      0.700120000000     0.966090000000     0.226890000000    -0.0346078  
C378     C      0.764770000000     0.987820000000     0.202900000000    -0.00778307 
C379     C      0.836510000000     0.985850000000     0.182730000000    -0.0927992  
C380     C      0.705460000000     0.987570000000     0.262120000000    -0.00822171 
C381     C      0.634670000000     0.989230000000     0.285120000000    -0.0924035  
C382     C      0.740510000000     0.009560000000     0.267210000000    -0.0333824  
C383     C      0.606640000000     0.988320000000     0.315540000000     0.0707378  
C384     C      0.657730000000     0.980850000000     0.363510000000     0.0867273  
C385     C      0.769790000000     0.009730000000     0.237940000000    -0.0332293  
C386     C      0.672870000000     0.974320000000     0.403120000000     0.040971   
C387     C      0.796340000000     0.987360000000     0.172120000000     0.0498103  
C388     C      0.675030000000     0.986400000000     0.293910000000     0.0518253  
C389     C      0.988490000000     0.136270000000     0.785030000000    -0.0953879  
C390     C      0.988970000000     0.367940000000     0.656300000000     0.0712795  
C391     C      0.989280000000     0.317690000000     0.607330000000     0.0717953  
C392     C      0.988650000000     0.339390000000     0.686290000000    -0.0929304  
C393     C      0.010320000000     0.272120000000     0.742620000000    -0.0339174  
C394     C      0.010040000000     0.242480000000     0.771590000000    -0.0334867  
C395     C      0.987480000000     0.268110000000     0.707990000000    -0.00783512 
C396     C      0.988920000000     0.288440000000     0.636540000000    -0.0922122  
C397     C      0.986920000000     0.208160000000     0.766580000000    -0.00855625 
C398     C      0.986960000000     0.184500000000     0.837090000000    -0.0935832  
C399     C      0.963670000000     0.204450000000     0.732220000000    -0.0347797  
C400     C      0.987070000000     0.153800000000     0.864800000000     0.0702953  
C401     C      0.988680000000     0.105850000000     0.813300000000     0.0858762  
C402     C      0.963950000000     0.234030000000     0.703300000000    -0.0350198  
C403     C      0.990130000000     0.065920000000     0.797620000000     0.0389023  
C404     C      0.988420000000     0.299050000000     0.676610000000     0.049497   
C405     C      0.987460000000     0.175960000000     0.796670000000     0.0513931  
C406     C      0.981170000000     0.686530000000     0.632930000000    -0.0954286  
C407     C      0.986170000000     0.814750000000     0.864580000000     0.0717814  
C408     C      0.983530000000     0.864370000000     0.815000000000     0.0720174  
C409     C      0.985820000000     0.785110000000     0.835730000000    -0.0934399  
C410     C      0.958210000000     0.767620000000     0.731710000000    -0.0349002  
C411     C      0.958070000000     0.738680000000     0.702160000000    -0.0345361  
C412     C      0.983660000000     0.764230000000     0.764490000000    -0.00800717 
C413     C      0.982940000000     0.835480000000     0.785430000000    -0.0926429  
C414     C      0.983510000000     0.705740000000     0.704590000000    -0.00853155 
C415     C      0.987000000000     0.635160000000     0.681570000000    -0.0937669  
C416     C      0.008790000000     0.702230000000     0.737530000000    -0.0334697  
C417     C      0.987310000000     0.607130000000     0.651240000000     0.0708478  
C418     C      0.981370000000     0.657900000000     0.602860000000     0.0866917  
C419     C      0.008820000000     0.731130000000     0.767170000000    -0.0339733  
C420     C      0.977230000000     0.672940000000     0.562920000000     0.041117   
C421     C      0.984130000000     0.795300000000     0.795610000000     0.0498877  
C422     C      0.983920000000     0.675400000000     0.672660000000     0.0518102  
C423     C      0.974100000000     0.680830000000     0.330050000000    -0.0948262  
C424     C      0.985920000000     0.862740000000     0.153210000000     0.0714813  
C425     C      0.992410000000     0.814310000000     0.102880000000     0.0719727  
C426     C      0.985930000000     0.833200000000     0.182230000000    -0.0925598  
C427     C      0.970760000000     0.724630000000     0.194320000000    -0.034672   
C428     C      0.970170000000     0.694840000000     0.223110000000    -0.0349551  
C429     C      0.989290000000     0.761260000000     0.201900000000    -0.00784542 
C430     C      0.992930000000     0.784130000000     0.131120000000    -0.0927657  
C431     C      0.987680000000     0.701140000000     0.260290000000    -0.0082194  
C432     C      0.993460000000     0.630710000000     0.283520000000    -0.0940889  
C433     C      0.006450000000     0.737540000000     0.267840000000    -0.0334402  
C434     C      0.991560000000     0.602550000000     0.313800000000     0.0717189  
C435     C      0.971680000000     0.652020000000     0.359780000000     0.0890076  
C436     C      0.007420000000     0.767160000000     0.238960000000    -0.033005   
C437     C      0.955050000000     0.664990000000     0.397130000000     0.0453619  
C438     C      0.989460000000     0.793240000000     0.171420000000     0.0496278  
C439     C      0.985350000000     0.670440000000     0.291670000000     0.0526297  
C440     C      0.983740000000     0.282730000000     0.336090000000    -0.0952326  
C441     C      0.985180000000     0.154060000000     0.104210000000     0.0715242  
C442     C      0.985240000000     0.104410000000     0.153780000000     0.0717105  
C443     C      0.985100000000     0.183690000000     0.133100000000    -0.0928527  
C444     C      0.962190000000     0.239070000000     0.200450000000    -0.0349036  
C445     C      0.962080000000     0.268070000000     0.230030000000    -0.0347705  
C446     C      0.985350000000     0.204640000000     0.204530000000    -0.00795748 
C447     C      0.985190000000     0.133290000000     0.183400000000    -0.0929796  
C448     C      0.985120000000     0.263320000000     0.264420000000    -0.00815532 
C449     C      0.984940000000     0.334130000000     0.287150000000    -0.0921569  
C450     C      0.008490000000     0.229030000000     0.268360000000    -0.0335177  
C451     C      0.984750000000     0.362290000000     0.317400000000     0.0703308  
C452     C      0.983490000000     0.311480000000     0.366090000000     0.0857561  
C453     C      0.008610000000     0.200070000000     0.238800000000    -0.0335839  
C454     C      0.982150000000     0.296420000000     0.406230000000     0.0383128  
C455     C      0.985190000000     0.173520000000     0.173300000000     0.0496585  
C456     C      0.984600000000     0.293820000000     0.296250000000     0.0512363  
H1       H      0.930050000000     0.927310000000     0.041300000000     0.210971   
H2       H      0.043230000000     0.041220000000     0.040770000000     0.210411   
H3       H      0.929490000000     0.040830000000     0.927670000000     0.211855   
H4       H      0.043430000000     0.927520000000     0.927640000000     0.21219    
H5       H      0.927820000000     0.539600000000     0.427200000000     0.213033   
H6       H      0.042390000000     0.427380000000     0.427870000000     0.211597   
H7       H      0.930520000000     0.429220000000     0.543340000000     0.211062   
H8       H      0.043390000000     0.543110000000     0.538960000000     0.211892   
H9       H      0.430140000000     0.928510000000     0.426530000000     0.211334   
H10      H      0.543080000000     0.042630000000     0.428800000000     0.211052   
H11      H      0.543580000000     0.927130000000     0.540240000000     0.212389   
H12      H      0.429450000000     0.039890000000     0.542000000000     0.211702   
H13      H      0.542760000000     0.427280000000     0.927470000000     0.210676   
H14      H      0.428920000000     0.428430000000     0.040710000000     0.210874   
H15      H      0.430890000000     0.542550000000     0.928120000000     0.210549   
H16      H      0.544410000000     0.540010000000     0.041680000000     0.211857   
H17      H      0.485250000000     0.076620000000     0.307390000000     0.0272535  
H18      H      0.483590000000     0.395210000000     0.161800000000     0.0246436  
H19      H      0.524190000000     0.246640000000     0.297340000000     0.0378302  
H20      H      0.441270000000     0.227400000000     0.177520000000     0.0386186  
H21      H      0.482020000000     0.346930000000     0.213990000000     0.0523042  
H22      H      0.440870000000     0.177160000000     0.229290000000     0.0385857  
H23      H      0.486960000000     0.253240000000     0.128130000000     0.0573741  
H24      H      0.484570000000     0.127390000000     0.257060000000     0.053694   
H25      H      0.482330000000     0.216880000000     0.348150000000     0.0521939  
H26      H      0.524510000000     0.297000000000     0.245510000000     0.0380177  
H27      H      0.483750000000     0.165400000000     0.398040000000     0.0239087  
H28      H      0.488730000000     0.662830000000     0.074360000000     0.0315885  
H29      H      0.487810000000     0.808150000000     0.393090000000     0.027781   
H30      H      0.532750000000     0.740730000000     0.175410000000     0.0384287  
H31      H      0.446390000000     0.727000000000     0.293570000000     0.0380686  
H32      H      0.488750000000     0.756420000000     0.344350000000     0.0535715  
H33      H      0.446010000000     0.675250000000     0.243150000000     0.03827    
H34      H      0.489970000000     0.843420000000     0.251570000000     0.0572681  
H35      H      0.489120000000     0.713670000000     0.124710000000     0.0545776  
H36      H      0.487720000000     0.623270000000     0.214910000000     0.0524077  
H37      H      0.533190000000     0.792390000000     0.225800000000     0.0389801  
H38      H      0.486670000000     0.572940000000     0.163900000000     0.0241078  
H39      H      0.488420000000     0.574620000000     0.806260000000     0.0239597  
H40      H      0.486220000000     0.893240000000     0.660650000000     0.0276671  
H41      H      0.529580000000     0.744050000000     0.793930000000     0.0386351  
H42      H      0.443280000000     0.725330000000     0.676420000000     0.0389395  
H43      H      0.485850000000     0.844530000000     0.712390000000     0.0538286  
H44      H      0.444020000000     0.675080000000     0.728180000000     0.0381733  
H45      H      0.486610000000     0.751580000000     0.625570000000     0.0570477  
H46      H      0.488010000000     0.624980000000     0.755470000000     0.0524959  
H47      H      0.488100000000     0.715270000000     0.845780000000     0.0540655  
H48      H      0.528870000000     0.794360000000     0.742080000000     0.0383863  
H49      H      0.489180000000     0.664230000000     0.896110000000     0.028952   
H50      H      0.483780000000     0.306260000000     0.894410000000     0.0269269  
H51      H      0.484790000000     0.160910000000     0.575800000000     0.0246801  
H52      H      0.525430000000     0.295020000000     0.725210000000     0.0379444  
H53      H      0.442000000000     0.175320000000     0.743450000000     0.0388737  
H54      H      0.483360000000     0.212610000000     0.624570000000     0.0524494  
H55      H      0.441180000000     0.227090000000     0.793720000000     0.0386549  
H56      H      0.487620000000     0.125710000000     0.717330000000     0.0574602  
H57      H      0.483670000000     0.255440000000     0.844070000000     0.0535961  
H58      H      0.483290000000     0.345870000000     0.753870000000     0.0522259  
H59      H      0.526100000000     0.243250000000     0.674840000000     0.0381812  
H60      H      0.484200000000     0.396180000000     0.804880000000     0.0240174  
H61      H      0.576910000000     0.163280000000     0.494910000000     0.0240467  
H62      H      0.896620000000     0.307910000000     0.471360000000     0.0326034  
H63      H      0.674050000000     0.247080000000     0.454950000000     0.0380064  
H64      H      0.803460000000     0.218000000000     0.518770000000     0.0391498  
H65      H      0.847440000000     0.255860000000     0.469840000000     0.0554932  
H66      H      0.751690000000     0.167490000000     0.518750000000     0.039524   
H67      H      0.758940000000     0.337660000000     0.510860000000     0.060055   
H68      H      0.628070000000     0.213490000000     0.495830000000     0.0523825  
H69      H      0.716560000000     0.122750000000     0.478060000000     0.0555732  
H70      H      0.725490000000     0.297830000000     0.456250000000     0.0412311  
H71      H      0.665030000000     0.073230000000     0.478720000000     0.0354159  
H72      H      0.577650000000     0.806880000000     0.474580000000     0.0294158  
H73      H      0.894680000000     0.659210000000     0.504040000000     0.0396392  
H74      H      0.673070000000     0.722960000000     0.516730000000     0.0390114  
H75      H      0.803760000000     0.749890000000     0.454630000000     0.0412818  
H76      H      0.845940000000     0.711580000000     0.505360000000     0.0579192  
H77      H      0.752760000000     0.801180000000     0.453720000000     0.0397969  
H78      H      0.757610000000     0.631030000000     0.461540000000     0.0601121  
H79      H      0.628420000000     0.756480000000     0.474770000000     0.0542767  
H80      H      0.717240000000     0.846800000000     0.493100000000     0.0553832  
H81      H      0.723710000000     0.671410000000     0.516230000000     0.0412163  
H82      H      0.665950000000     0.896700000000     0.491210000000     0.0348502  
H83      H      0.076770000000     0.306770000000     0.486620000000     0.0297059  
H84      H      0.396730000000     0.162080000000     0.483970000000     0.0248241  
H85      H      0.177580000000     0.228600000000     0.442320000000     0.038801   
H86      H      0.297760000000     0.244600000000     0.525670000000     0.0377893  
H87      H      0.347970000000     0.214010000000     0.483100000000     0.0525174  
H88      H      0.246980000000     0.296160000000     0.526030000000     0.0385648  
H89      H      0.254690000000     0.127350000000     0.486230000000     0.0574853  
H90      H      0.127560000000     0.256190000000     0.486470000000     0.0543367  
H91      H      0.217480000000     0.347080000000     0.483890000000     0.0535386  
H92      H      0.228300000000     0.177160000000     0.441920000000     0.0390305  
H93      H      0.166090000000     0.397130000000     0.484730000000     0.0298196  
H94      H      0.308130000000     0.893930000000     0.480970000000     0.0268946  
H95      H      0.163240000000     0.574570000000     0.489210000000     0.0311041  
H96      H      0.226890000000     0.794680000000     0.521940000000     0.0387899  
H97      H      0.249490000000     0.671090000000     0.445710000000     0.0387867  
H98      H      0.215330000000     0.623290000000     0.491110000000     0.0546806  
H99      H      0.300770000000     0.722110000000     0.446520000000     0.0381058  
H100     H      0.130130000000     0.715400000000     0.469700000000     0.058915   
H101     H      0.257610000000     0.843150000000     0.480500000000     0.0533958  
H102     H      0.348830000000     0.753750000000     0.488000000000     0.0539775  
H103     H      0.175440000000     0.743960000000     0.520410000000     0.039927   
H104     H      0.398750000000     0.805090000000     0.487240000000     0.03061    
H105     H      0.576090000000     0.474210000000     0.162830000000     0.0242097  
H106     H      0.894230000000     0.493230000000     0.309050000000     0.0272098  
H107     H      0.672920000000     0.512710000000     0.247120000000     0.0382198  
H108     H      0.800670000000     0.444330000000     0.221370000000     0.038684   
H109     H      0.845060000000     0.493400000000     0.257320000000     0.0541297  
H110     H      0.749730000000     0.444960000000     0.170060000000     0.0382972  
H111     H      0.755990000000     0.457730000000     0.340960000000     0.0598535  
H112     H      0.626440000000     0.472290000000     0.213600000000     0.052535   
H113     H      0.716670000000     0.486420000000     0.123990000000     0.0538693  
H114     H      0.723480000000     0.510890000000     0.298670000000     0.0410801  
H115     H      0.665710000000     0.486750000000     0.073710000000     0.0301332  
H116     H      0.397650000000     0.486580000000     0.163310000000     0.0239083  
H117     H      0.162980000000     0.486380000000     0.393160000000     0.0279649  
H118     H      0.296140000000     0.445660000000     0.242650000000     0.0377021  
H119     H      0.177540000000     0.531090000000     0.225940000000     0.038922   
H120     H      0.214730000000     0.488030000000     0.344280000000     0.0535385  
H121     H      0.229030000000     0.531390000000     0.175260000000     0.038288   
H122     H      0.127420000000     0.486110000000     0.251660000000     0.0570371  
H123     H      0.347390000000     0.487730000000     0.214350000000     0.0522718  
H124     H      0.256600000000     0.488560000000     0.124340000000     0.0525349  
H125     H      0.244630000000     0.445440000000     0.293390000000     0.0380113  
H126     H      0.307480000000     0.488140000000     0.073850000000     0.0242224  
H127     H      0.397340000000     0.485110000000     0.805640000000     0.0239432  
H128     H      0.077530000000     0.485910000000     0.660700000000     0.024851   
H129     H      0.296180000000     0.442250000000     0.726930000000     0.0380267  
H130     H      0.177210000000     0.527480000000     0.742270000000     0.03717    
H131     H      0.126520000000     0.484970000000     0.712310000000     0.0521353  
H132     H      0.227880000000     0.527380000000     0.793860000000     0.0371072  
H133     H      0.219390000000     0.486750000000     0.625240000000     0.0567893  
H134     H      0.346880000000     0.485170000000     0.754770000000     0.0522793  
H135     H      0.256370000000     0.485340000000     0.845060000000     0.0517156  
H136     H      0.245580000000     0.442390000000     0.675380000000     0.0385354  
H137     H      0.307440000000     0.486000000000     0.895370000000     0.0236271  
H138     H      0.578020000000     0.492830000000     0.806430000000     0.02417    
H139     H      0.898050000000     0.475960000000     0.662530000000     0.0236982  
H140     H      0.686020000000     0.541400000000     0.738020000000     0.0391616  
H141     H      0.793300000000     0.440710000000     0.738980000000     0.0377722  
H142     H      0.849600000000     0.476880000000     0.714950000000     0.0521245  
H143     H      0.741870000000     0.438710000000     0.789860000000     0.0381311  
H144     H      0.759390000000     0.510480000000     0.631380000000     0.059422   
H145     H      0.629640000000     0.495000000000     0.756470000000     0.0531685  
H146     H      0.718030000000     0.480570000000     0.847560000000     0.0539792  
H147     H      0.737920000000     0.544350000000     0.687910000000     0.0390897  
H148     H      0.666040000000     0.478630000000     0.896940000000     0.0296703  
H149     H      0.897520000000     0.805330000000     0.982600000000     0.0237345  
H150     H      0.577980000000     0.660900000000     0.983350000000     0.0275545  
H151     H      0.796050000000     0.727520000000     0.938090000000     0.0381563  
H152     H      0.677970000000     0.741710000000     0.024710000000     0.0381306  
H153     H      0.626950000000     0.712520000000     0.982020000000     0.0534021  
H154     H      0.728660000000     0.793310000000     0.024810000000     0.0381398  
H155     H      0.719830000000     0.625360000000     0.982170000000     0.0568581  
H156     H      0.847000000000     0.754470000000     0.982040000000     0.0522633  
H157     H      0.756570000000     0.844900000000     0.982200000000     0.0532382  
H158     H      0.745360000000     0.675990000000     0.937940000000     0.0386962  
H159     H      0.807650000000     0.895190000000     0.983390000000     0.0268598  
H160     H      0.574540000000     0.304190000000     0.985830000000     0.0306117  
H161     H      0.896080000000     0.161850000000     0.987210000000     0.0243378  
H162     H      0.676260000000     0.225800000000     0.029860000000     0.0394592  
H163     H      0.795760000000     0.242940000000     0.945700000000     0.037379   
H164     H      0.846710000000     0.213310000000     0.988680000000     0.0521595  
H165     H      0.744240000000     0.293700000000     0.945240000000     0.0375697  
H166     H      0.754360000000     0.125680000000     0.985370000000     0.0572669  
H167     H      0.625320000000     0.253380000000     0.986330000000     0.054207   
H168     H      0.715400000000     0.344150000000     0.987800000000     0.0528705  
H169     H      0.727760000000     0.175070000000     0.030290000000     0.0393627  
H170     H      0.664270000000     0.394180000000     0.986590000000     0.0269039  
H171     H      0.165220000000     0.894690000000     0.995350000000     0.0416307  
H172     H      0.310130000000     0.575870000000     0.983930000000     0.0242449  
H173     H      0.241210000000     0.790980000000     0.037150000000     0.0398943  
H174     H      0.231170000000     0.677960000000     0.943790000000     0.0372359  
H175     H      0.258360000000     0.624740000000     0.985680000000     0.0521273  
H176     H      0.179610000000     0.728650000000     0.943830000000     0.0376388  
H177     H      0.345610000000     0.717180000000     0.993300000000     0.0575599  
H178     H      0.216160000000     0.844290000000     0.996010000000     0.0571825  
H179     H      0.125840000000     0.754490000000     0.984190000000     0.0519291  
H180     H      0.292830000000     0.740360000000     0.036970000000     0.0395424  
H181     H      0.075680000000     0.805630000000     0.982220000000     0.0239133  
H182     H      0.394240000000     0.307390000000     0.980710000000     0.0286893  
H183     H      0.074460000000     0.162430000000     0.989900000000     0.0245093  
H184     H      0.294420000000     0.228540000000     0.024360000000     0.0387349  
H185     H      0.171070000000     0.248640000000     0.946680000000     0.0378207  
H186     H      0.122650000000     0.215020000000     0.991510000000     0.0523737  
H187     H      0.222100000000     0.299980000000     0.946430000000     0.0375643  
H188     H      0.216360000000     0.130470000000     0.974940000000     0.0587346  
H189     H      0.342990000000     0.257380000000     0.981030000000     0.0537864  
H190     H      0.254080000000     0.349140000000     0.987220000000     0.0518531  
H191     H      0.243660000000     0.177160000000     0.024120000000     0.0395516  
H192     H      0.305950000000     0.398620000000     0.985830000000     0.0236608  
H193     H      0.896080000000     0.985390000000     0.805870000000     0.0289871  
H194     H      0.575420000000     0.978910000000     0.662360000000     0.0305288  
H195     H      0.795780000000     0.942810000000     0.726350000000     0.0384862  
H196     H      0.673240000000     0.021650000000     0.747120000000     0.039509   
H197     H      0.624230000000     0.977320000000     0.714330000000     0.0543476  
H198     H      0.724510000000     0.021360000000     0.798140000000     0.0390881  
H199     H      0.717090000000     0.992120000000     0.628540000000     0.0579441  
H200     H      0.845000000000     0.985440000000     0.755610000000     0.0537895  
H201     H      0.755690000000     0.979610000000     0.846940000000     0.0539009  
H202     H      0.744720000000     0.943510000000     0.675260000000     0.0390846  
H203     H      0.807300000000     0.980580000000     0.896580000000     0.0302375  
H204     H      0.395690000000     0.976820000000     0.662760000000     0.0288351  
H205     H      0.076110000000     0.999240000000     0.807620000000     0.0323481  
H206     H      0.298270000000     0.020030000000     0.744540000000     0.0391446  
H207     H      0.169970000000     0.952410000000     0.719390000000     0.0389963  
H208     H      0.124960000000     0.000950000000     0.755430000000     0.0575059  
H209     H      0.221390000000     0.951170000000     0.668560000000     0.0386001  
H210     H      0.215590000000     0.967650000000     0.838350000000     0.059544   
H211     H      0.344600000000     0.977480000000     0.712970000000     0.0538911  
H212     H      0.255850000000     0.990670000000     0.621780000000     0.0542258  
H213     H      0.247170000000     0.020200000000     0.795600000000     0.040922   
H214     H      0.307370000000     0.988480000000     0.572240000000     0.0308005  
H215     H      0.396470000000     0.986100000000     0.305640000000     0.0291562  
H216     H      0.075930000000     0.990090000000     0.161870000000     0.0246719  
H217     H      0.295780000000     0.028960000000     0.226310000000     0.0388015  
H218     H      0.174150000000     0.948560000000     0.246450000000     0.0382955  
H219     H      0.124650000000     0.992410000000     0.213880000000     0.0527518  
H220     H      0.225360000000     0.949100000000     0.297510000000     0.0383264  
H221     H      0.217820000000     0.979270000000     0.128170000000     0.0584462  
H222     H      0.345440000000     0.986480000000     0.255300000000     0.0539599  
H223     H      0.255990000000     0.990990000000     0.346570000000     0.0538196  
H224     H      0.244760000000     0.028020000000     0.175170000000     0.0394585  
H225     H      0.307520000000     0.989640000000     0.396250000000     0.0299159  
H226     H      0.896430000000     0.983980000000     0.163190000000     0.023643   
H227     H      0.575820000000     0.991190000000     0.306770000000     0.030488   
H228     H      0.796230000000     0.027360000000     0.242640000000     0.0385892  
H229     H      0.673650000000     0.948470000000     0.222320000000     0.0389759  
H230     H      0.624670000000     0.992820000000     0.254850000000     0.0544413  
H231     H      0.724870000000     0.948510000000     0.171260000000     0.0381453  
H232     H      0.717510000000     0.978690000000     0.340780000000     0.0577871  
H233     H      0.845410000000     0.984510000000     0.213520000000     0.0523133  
H234     H      0.756020000000     0.990070000000     0.122250000000     0.0540623  
H235     H      0.745200000000     0.026920000000     0.293770000000     0.0392967  
H236     H      0.807550000000     0.988560000000     0.072560000000     0.0304619  
H237     H      0.989640000000     0.307870000000     0.576770000000     0.0273855  
H238     H      0.986370000000     0.162510000000     0.895680000000     0.0244928  
H239     H      0.945390000000     0.230340000000     0.677380000000     0.0384367  
H240     H      0.028630000000     0.246060000000     0.797500000000     0.0378527  
H241     H      0.985840000000     0.214850000000     0.847440000000     0.0517332  
H242     H      0.029130000000     0.297770000000     0.746960000000     0.0378744  
H243     H      0.989680000000     0.128920000000     0.753770000000     0.0573743  
H244     H      0.989430000000     0.257610000000     0.627650000000     0.0537042  
H245     H      0.987900000000     0.348970000000     0.716880000000     0.051417   
H246     H      0.944950000000     0.178750000000     0.727770000000     0.0387804  
H247     H      0.988830000000     0.398770000000     0.665300000000     0.023302   
H248     H      0.982690000000     0.895060000000     0.805590000000     0.0271287  
H249     H      0.989820000000     0.576420000000     0.660280000000     0.0246335  
H250     H      0.029120000000     0.727930000000     0.791830000000     0.0375444  
H251     H      0.937690000000     0.741930000000     0.677580000000     0.0390573  
H252     H      0.988690000000     0.625140000000     0.711990000000     0.0520077  
H253     H      0.938010000000     0.792450000000     0.729110000000     0.0386532  
H254     H      0.979200000000     0.717680000000     0.625220000000     0.0579305  
H255     H      0.982100000000     0.844660000000     0.754710000000     0.0536492  
H256     H      0.986360000000     0.754370000000     0.844900000000     0.0517581  
H257     H      0.029140000000     0.677530000000     0.740070000000     0.0373411  
H258     H      0.987350000000     0.805360000000     0.895250000000     0.0234843  
H259     H      0.995240000000     0.805580000000     0.072120000000     0.0245944  
H260     H      0.999330000000     0.572360000000     0.306050000000     0.0310973  
H261     H      0.022680000000     0.794580000000     0.245640000000     0.0384371  
H262     H      0.955070000000     0.667260000000     0.216640000000     0.0383984  
H263     H      0.002120000000     0.621470000000     0.254050000000     0.056371   
H264     H      0.955910000000     0.719160000000     0.166420000000     0.0374927  
H265     H      0.966040000000     0.711280000000     0.336560000000     0.0595142  
H266     H      0.996490000000     0.753810000000     0.121270000000     0.0521974  
H267     H      0.982540000000     0.841770000000     0.212930000000     0.0522202  
H268     H      0.020630000000     0.743020000000     0.296100000000     0.0409777  
H269     H      0.982900000000     0.893150000000     0.163060000000     0.0235797  
H270     H      0.985160000000     0.073700000000     0.163190000000     0.0240971  
H271     H      0.985350000000     0.393060000000     0.308210000000     0.0306804  
H272     H      0.027350000000     0.174280000000     0.242590000000     0.0381057  
H273     H      0.943350000000     0.293870000000     0.226300000000     0.0384068  
H274     H      0.985980000000     0.344070000000     0.256680000000     0.0540409  
H275     H      0.943510000000     0.243300000000     0.174700000000     0.0380335  
H276     H      0.982720000000     0.251560000000     0.343890000000     0.0568086  
H277     H      0.984680000000     0.124020000000     0.214090000000     0.0524182  
H278     H      0.985570000000     0.214420000000     0.123890000000     0.0521533  
H279     H      0.027120000000     0.224760000000     0.294140000000     0.0386948  
H280     H      0.985300000000     0.163480000000     0.073530000000     0.0238335  
N1       N      0.485670000000     0.353090000000     0.113810000000    -0.19084    
N2       N      0.484560000000     0.117000000000     0.356660000000    -0.191896   
N3       N      0.491440000000     0.282440000000     0.027940000000    -0.102887   
N4       N      0.488720000000     0.856650000000     0.351520000000    -0.190471   
N5       N      0.487730000000     0.613910000000     0.115160000000    -0.191504   
N6       N      0.491070000000     0.943460000000     0.281800000000    -0.103609   
N7       N      0.486220000000     0.851580000000     0.612210000000    -0.190569   
N8       N      0.488720000000     0.615450000000     0.855160000000    -0.191784   
N9       N      0.485990000000     0.781710000000     0.525530000000    -0.103654   
N10      N      0.486530000000     0.112430000000     0.617380000000    -0.190733   
N11      N      0.484080000000     0.355190000000     0.853620000000    -0.19205    
N12      N      0.491380000000     0.025710000000     0.687060000000    -0.102807   
N13      N      0.856720000000     0.353540000000     0.491390000000    -0.190429   
N14      N      0.616950000000     0.114380000000     0.486850000000    -0.191505   
N15      N      0.793500000000     0.432380000000     0.537900000000    -0.0910525  
N16      N      0.855050000000     0.614330000000     0.481950000000    -0.189753   
N17      N      0.617820000000     0.855680000000     0.482870000000    -0.191302   
N18      N      0.792080000000     0.536350000000     0.433820000000    -0.0911718  
N19      N      0.354840000000     0.113770000000     0.485100000000    -0.190913   
N20      N      0.117420000000     0.355890000000     0.485580000000    -0.191224   
N21      N      0.284530000000     0.027280000000     0.488340000000    -0.103176   
N22      N      0.115630000000     0.616020000000     0.478880000000    -0.190266   
N23      N      0.357370000000     0.853510000000     0.484040000000    -0.19166    
N24      N      0.031780000000     0.684830000000     0.453050000000    -0.0885093  
N25      N      0.854220000000     0.475920000000     0.355760000000    -0.190606   
N26      N      0.616950000000     0.480630000000     0.114350000000    -0.192122   
N27      N      0.790020000000     0.435720000000     0.437230000000    -0.0895726  
N28      N      0.114350000000     0.485700000000     0.351630000000    -0.190784   
N29      N      0.356520000000     0.487240000000     0.114600000000    -0.192454   
N30      N      0.027280000000     0.484170000000     0.281930000000    -0.103549   
N31      N      0.119150000000     0.486380000000     0.612170000000    -0.190847   
N32      N      0.356380000000     0.485560000000     0.854480000000    -0.192335   
N33      N      0.188980000000     0.488200000000     0.525330000000    -0.10424    
N34      N      0.857550000000     0.492940000000     0.616220000000    -0.190602   
N35      N      0.617970000000     0.485650000000     0.855550000000    -0.191933   
N36      N      0.792140000000     0.532340000000     0.535200000000    -0.0894718  
N37      N      0.619630000000     0.612340000000     0.983130000000    -0.191282   
N38      N      0.856550000000     0.854200000000     0.983070000000    -0.192764   
N39      N      0.689430000000     0.525380000000     0.982700000000    -0.104045   
N40      N      0.854660000000     0.113180000000     0.985870000000    -0.191302   
N41      N      0.615400000000     0.353100000000     0.986060000000    -0.191829   
N42      N      0.785050000000     0.026030000000     0.982510000000    -0.103474   
N43      N      0.358720000000     0.617300000000     0.987890000000    -0.191391   
N44      N      0.116590000000     0.854210000000     0.988110000000    -0.191008   
N45      N      0.445720000000     0.686680000000     0.995920000000    -0.103812   
N46      N      0.116740000000     0.115090000000     0.982000000000    -0.190587   
N47      N      0.354140000000     0.356900000000     0.983320000000    -0.19211    
N48      N      0.187810000000     0.031450000000     0.961990000000    -0.0883298  
N49      N      0.617210000000     0.985830000000     0.614490000000    -0.190617   
N50      N      0.855720000000     0.982990000000     0.855120000000    -0.191439   
N51      N      0.687060000000     0.002980000000     0.529300000000    -0.0950037  
N52      N      0.116950000000     0.982800000000     0.853890000000    -0.190471   
N53      N      0.355560000000     0.982600000000     0.613620000000    -0.191535   
N54      N      0.183260000000     0.943730000000     0.934370000000    -0.0921999  
N55      N      0.117860000000     0.983860000000     0.114030000000    -0.190842   
N56      N      0.356010000000     0.987710000000     0.354840000000    -0.191599   
N57      N      0.188370000000     0.967720000000     0.029110000000    -0.0909151  
N58      N      0.617580000000     0.984560000000     0.354710000000    -0.190532   
N59      N      0.856020000000     0.986130000000     0.113970000000    -0.191921   
N60      N      0.687390000000     0.968030000000     0.440040000000    -0.096512   
N61      N      0.987740000000     0.114530000000     0.853550000000    -0.190634   
N62      N      0.989090000000     0.357260000000     0.617010000000    -0.191861   
N63      N      0.991460000000     0.028620000000     0.782720000000    -0.103469   
N64      N      0.984660000000     0.617860000000     0.611930000000    -0.190816   
N65      N      0.985090000000     0.854170000000     0.854380000000    -0.19226    
N66      N      0.973150000000     0.687550000000     0.525750000000    -0.0917266  
N67      N      0.981720000000     0.612900000000     0.352020000000    -0.190431   
N68      N      0.988890000000     0.853430000000     0.113720000000    -0.192101   
N69      N      0.939050000000     0.677600000000     0.431750000000    -0.0913997  
N70      N      0.984200000000     0.351620000000     0.356820000000    -0.190062   
N71      N      0.985320000000     0.114600000000     0.114370000000    -0.191972   
N72      N      0.980940000000     0.282110000000     0.443740000000    -0.103987   
O1       O      0.985690000000     0.096830000000     0.048820000000    -0.374873   
O2       O      0.988270000000     0.871960000000     0.048540000000    -0.375858   
O3       O      0.921920000000     0.984990000000     0.096750000000    -0.375617   
O4       O      0.051770000000     0.983860000000     0.096580000000    -0.374645   
O5       O      0.098980000000     0.984330000000     0.048460000000    -0.36706    
O6       O      0.874290000000     0.985120000000     0.048690000000    -0.372929   
O7       O      0.987420000000     0.919350000000     0.096770000000    -0.374334   
O8       O      0.985980000000     0.049000000000     0.096650000000    -0.374648   
O9       O      0.026750000000     0.944390000000     0.024320000000    -0.506361   
O10      O      0.946630000000     0.024230000000     0.024510000000    -0.5047     
O11      O      0.946590000000     0.943860000000     0.024830000000    -0.653744   
O12      O      0.026620000000     0.024650000000     0.024380000000    -0.647992   
O13      O      0.986220000000     0.871960000000     0.919860000000    -0.376519   
O14      O      0.986870000000     0.096850000000     0.919480000000    -0.374214   
O15      O      0.874340000000     0.919660000000     0.983920000000    -0.376171   
O16      O      0.099010000000     0.919880000000     0.986740000000    -0.365068   
O17      O      0.098540000000     0.049200000000     0.982770000000    -0.365464   
O18      O      0.874360000000     0.047940000000     0.985210000000    -0.370927   
O19      O      0.921630000000     0.983820000000     0.872220000000    -0.37243    
O20      O      0.051150000000     0.984400000000     0.871810000000    -0.371034   
O21      O      0.874110000000     0.983190000000     0.920380000000    -0.373038   
O22      O      0.098810000000     0.983350000000     0.919620000000    -0.365269   
O23      O      0.922230000000     0.871880000000     0.983710000000    -0.37771    
O24      O      0.921060000000     0.096490000000     0.985040000000    -0.374905   
O25      O      0.050900000000     0.096960000000     0.983260000000    -0.374656   
O26      O      0.051140000000     0.872060000000     0.985280000000    -0.376809   
O27      O      0.985470000000     0.919740000000     0.872050000000    -0.373923   
O28      O      0.987260000000     0.048830000000     0.872290000000    -0.368984   
O29      O      0.026470000000     0.024560000000     0.944190000000    -0.505398   
O30      O      0.946540000000     0.944020000000     0.944170000000    -0.510446   
O31      O      0.946190000000     0.024430000000     0.944130000000    -0.653153   
O32      O      0.026870000000     0.944120000000     0.944030000000    -0.655088   
O33      O      0.985140000000     0.371500000000     0.422190000000    -0.368763   
O34      O      0.983320000000     0.595480000000     0.417770000000    -0.364964   
O35      O      0.919910000000     0.480290000000     0.373040000000    -0.37512    
O36      O      0.048850000000     0.484230000000     0.371270000000    -0.370099   
O37      O      0.097590000000     0.485470000000     0.417760000000    -0.373336   
O38      O      0.872780000000     0.479000000000     0.421380000000    -0.361447   
O39      O      0.983780000000     0.547290000000     0.370550000000    -0.370326   
O40      O      0.984540000000     0.417850000000     0.373350000000    -0.3711     
O41      O      0.025270000000     0.524440000000     0.442670000000    -0.508874   
O42      O      0.945630000000     0.443630000000     0.445720000000    -0.509061   
O43      O      0.944810000000     0.523730000000     0.443890000000    -0.657485   
O44      O      0.025960000000     0.444090000000     0.444290000000    -0.653664   
O45      O      0.984960000000     0.598160000000     0.546510000000    -0.367374   
O46      O      0.988400000000     0.373980000000     0.551230000000    -0.374185   
O47      O      0.873080000000     0.548560000000     0.482470000000    -0.362783   
O48      O      0.098110000000     0.550200000000     0.480800000000    -0.37239    
O49      O      0.099150000000     0.421290000000     0.484230000000    -0.372907   
O50      O      0.874240000000     0.419380000000     0.489570000000    -0.363899   
O51      O      0.923100000000     0.488660000000     0.597700000000    -0.374236   
O52      O      0.052830000000     0.486690000000     0.595520000000    -0.374625   
O53      O      0.874870000000     0.489240000000     0.550420000000    -0.362489   
O54      O      0.099380000000     0.486010000000     0.546800000000    -0.369313   
O55      O      0.920680000000     0.596520000000     0.483850000000    -0.365568   
O56      O      0.922270000000     0.371880000000     0.487630000000    -0.371319   
O57      O      0.051590000000     0.373150000000     0.486160000000    -0.372064   
O58      O      0.049810000000     0.597290000000     0.480180000000    -0.365539   
O59      O      0.986570000000     0.551770000000     0.595270000000    -0.37563    
O60      O      0.988390000000     0.422590000000     0.598220000000    -0.376731   
O61      O      0.027170000000     0.445970000000     0.524530000000    -0.506772   
O62      O      0.946280000000     0.525160000000     0.524150000000    -0.509383   
O63      O      0.946710000000     0.445310000000     0.526080000000    -0.653834   
O64      O      0.026730000000     0.526090000000     0.523110000000    -0.653814   
O65      O      0.598570000000     0.984610000000     0.420220000000    -0.368889   
O66      O      0.374210000000     0.986080000000     0.420110000000    -0.374472   
O67      O      0.487700000000     0.922100000000     0.371170000000    -0.368647   
O68      O      0.485680000000     0.051240000000     0.373450000000    -0.374277   
O69      O      0.485300000000     0.098340000000     0.421990000000    -0.375453   
O70      O      0.487930000000     0.873370000000     0.417630000000    -0.373274   
O71      O      0.421880000000     0.986860000000     0.372100000000    -0.373004   
O72      O      0.551450000000     0.985760000000     0.372070000000    -0.371663   
O73      O      0.446410000000     0.025200000000     0.445130000000    -0.506896   
O74      O      0.526930000000     0.945410000000     0.443510000000    -0.510297   
O75      O      0.446640000000     0.944800000000     0.443300000000    -0.655751   
O76      O      0.526510000000     0.025850000000     0.445010000000    -0.653801   
O77      O      0.373970000000     0.983260000000     0.548390000000    -0.374335   
O78      O      0.598340000000     0.985640000000     0.548950000000    -0.369017   
O79      O      0.422850000000     0.871710000000     0.483500000000    -0.373806   
O80      O      0.421060000000     0.096660000000     0.485740000000    -0.375061   
O81      O      0.551020000000     0.097130000000     0.487450000000    -0.375018   
O82      O      0.552010000000     0.872790000000     0.481700000000    -0.37325    
O83      O      0.486220000000     0.917710000000     0.595500000000    -0.373918   
O84      O      0.486520000000     0.046980000000     0.597700000000    -0.368012   
O85      O      0.486710000000     0.871240000000     0.546780000000    -0.368392   
O86      O      0.486430000000     0.095750000000     0.551270000000    -0.375191   
O87      O      0.374660000000     0.919240000000     0.483900000000    -0.374256   
O88      O      0.599450000000     0.920990000000     0.484140000000    -0.370846   
O89      O      0.598710000000     0.049140000000     0.485210000000    -0.371233   
O90      O      0.374170000000     0.048270000000     0.484530000000    -0.368364   
O91      O      0.421490000000     0.981760000000     0.596540000000    -0.372707   
O92      O      0.551120000000     0.984070000000     0.596990000000    -0.371588   
O93      O      0.526240000000     0.024130000000     0.525350000000    -0.507122   
O94      O      0.446690000000     0.943360000000     0.523690000000    -0.50925    
O95      O      0.526880000000     0.943740000000     0.524000000000    -0.656887   
O96      O      0.446170000000     0.023780000000     0.525280000000    -0.652403   
O97      O      0.373070000000     0.422110000000     0.983870000000    -0.376788   
O98      O      0.597920000000     0.418560000000     0.985420000000    -0.376566   
O99      O      0.484510000000     0.372690000000     0.919180000000    -0.374994   
O100     O      0.485450000000     0.372040000000     0.048190000000    -0.368408   
O101     O      0.486140000000     0.419050000000     0.096370000000    -0.375008   
O102     O      0.485470000000     0.420710000000     0.871590000000    -0.376316   
O103     O      0.549670000000     0.371100000000     0.984870000000    -0.371495   
O104     O      0.420140000000     0.373450000000     0.983100000000    -0.373424   
O105     O      0.526070000000     0.443450000000     0.024390000000    -0.508525   
O106     O      0.446000000000     0.445530000000     0.944150000000    -0.507411   
O107     O      0.526360000000     0.443920000000     0.943990000000    -0.655118   
O108     O      0.445760000000     0.444770000000     0.024330000000    -0.65192    
O109     O      0.599870000000     0.547000000000     0.983920000000    -0.370829   
O110     O      0.375410000000     0.551190000000     0.985910000000    -0.376278   
O111     O      0.551950000000     0.485860000000     0.872450000000    -0.374639   
O112     O      0.551270000000     0.481560000000     0.096720000000    -0.376488   
O113     O      0.422110000000     0.485560000000     0.096800000000    -0.377391   
O114     O      0.422100000000     0.485330000000     0.872170000000    -0.375858   
O115     O      0.488770000000     0.597420000000     0.920650000000    -0.372589   
O116     O      0.488090000000     0.596380000000     0.049590000000    -0.371206   
O117     O      0.488010000000     0.549840000000     0.872620000000    -0.37624    
O118     O      0.487080000000     0.548370000000     0.097200000000    -0.375207   
O119     O      0.599370000000     0.483520000000     0.920670000000    -0.373881   
O120     O      0.374200000000     0.486020000000     0.919980000000    -0.376514   
O121     O      0.374210000000     0.486840000000     0.049020000000    -0.374978   
O122     O      0.599150000000     0.482380000000     0.048910000000    -0.37311    
O123     O      0.553370000000     0.595740000000     0.984120000000    -0.375136   
O124     O      0.424220000000     0.597660000000     0.986410000000    -0.370667   
O125     O      0.447360000000     0.525010000000     0.024750000000    -0.506554   
O126     O      0.527590000000     0.524200000000     0.944590000000    -0.509463   
O127     O      0.447210000000     0.525660000000     0.944460000000    -0.652675   
O128     O      0.527560000000     0.523870000000     0.025120000000    -0.655058   
Zr1      Zr     0.986780000000     0.984250000000     0.064410000000     1.4219     
Zr2      Zr     0.986730000000     0.904550000000     0.984280000000     1.42885    
Zr3      Zr     0.986220000000     0.064380000000     0.984220000000     1.42158    
Zr4      Zr     0.907080000000     0.983930000000     0.984510000000     1.43612    
Zr5      Zr     0.066340000000     0.984470000000     0.984170000000     1.43875    
Zr6      Zr     0.986500000000     0.984290000000     0.904490000000     1.43079    
Zr7      Zr     0.984810000000     0.483190000000     0.404500000000     1.43376    
Zr8      Zr     0.985400000000     0.564350000000     0.482760000000     1.44302    
Zr9      Zr     0.986630000000     0.405100000000     0.486070000000     1.43252    
Zr10     Zr     0.906060000000     0.484180000000     0.485470000000     1.44434    
Zr11     Zr     0.065980000000     0.485470000000     0.482870000000     1.43502    
Zr12     Zr     0.987400000000     0.486460000000     0.564290000000     1.42533    
Zr13     Zr     0.486650000000     0.986090000000     0.404560000000     1.4328     
Zr14     Zr     0.406920000000     0.984010000000     0.484290000000     1.43602    
Zr15     Zr     0.566050000000     0.984960000000     0.484540000000     1.4427     
Zr16     Zr     0.487110000000     0.904710000000     0.482810000000     1.43606    
Zr17     Zr     0.486140000000     0.064650000000     0.485980000000     1.42688    
Zr18     Zr     0.486400000000     0.982970000000     0.564320000000     1.43217    
Zr19     Zr     0.485420000000     0.404740000000     0.983880000000     1.43259    
Zr20     Zr     0.566320000000     0.483250000000     0.984670000000     1.43874    
Zr21     Zr     0.406790000000     0.486000000000     0.984470000000     1.42695    
Zr22     Zr     0.486870000000     0.485060000000     0.904540000000     1.42742    
Zr23     Zr     0.486640000000     0.483930000000     0.064340000000     1.42993    
Zr24     Zr     0.488180000000     0.564300000000     0.984910000000     1.43431    


