data_structure

_audit_creation_method RASPA-1.0
_audit_creation_date 2023-5-19
_audit_author_name 'Poobodin Mano'

_cell_length_a    21.4529
_cell_length_b    21.4074
_cell_length_c    21.3772
_cell_angle_alpha 90
_cell_angle_beta  90
_cell_angle_gamma 90
_cell_volume      9817.5

_symmetry_cell_setting          triclinic
_symmetry_space_group_name_Hall 'P 1'
_symmetry_space_group_name_H-M  'P 1'
_symmetry_Int_Tables_number     1

_symmetry_equiv_pos_as_xyz 'x,y,z'

loop_
_atom_site_label
_atom_site_type_symbol
_atom_site_fract_x
_atom_site_fract_y
_atom_site_fract_z
_atom_site_charge
C1       C      0.980050000000     0.148410000000     0.128000000000     0.390545   
C2       C      0.985470000000     0.830530000000     0.149240000000     0.392018   
C3       C      0.819220000000     0.003600000000     0.137690000000     0.395972   
C4       C      0.137810000000     0.991990000000     0.135950000000     0.389575   
C5       C      0.979350000000     0.808300000000     0.831140000000     0.391013   
C6       C      0.978450000000     0.126460000000     0.807400000000     0.391368   
C7       C      0.818150000000     0.820310000000     0.996570000000     0.387629   
C8       C      0.136630000000     0.821520000000     0.983420000000     0.393802   
C9       C      0.135030000000     0.139740000000     0.972230000000     0.39245    
C10      C      0.817630000000     0.138650000000     0.963540000000     0.389537   
C11      C      0.815950000000     0.960380000000     0.820830000000     0.391732   
C12      C      0.134710000000     0.969320000000     0.817420000000     0.390234   
C13      C      0.961480000000     0.329190000000     0.309000000000     0.393686   
C14      C      0.968770000000     0.646930000000     0.329880000000     0.389184   
C15      C      0.814630000000     0.476700000000     0.322830000000     0.395888   
C16      C      0.129730000000     0.489010000000     0.314050000000     0.393825   
C17      C      0.972500000000     0.625850000000     0.646970000000     0.392897   
C18      C      0.966350000000     0.307310000000     0.626560000000     0.391352   
C19      C      0.819630000000     0.636640000000     0.497530000000     0.391264   
C20      C      0.139160000000     0.633720000000     0.487670000000     0.389777   
C21      C      0.136490000000     0.316200000000     0.456340000000     0.387728   
C22      C      0.820210000000     0.315950000000     0.474230000000     0.394491   
C23      C      0.822490000000     0.463610000000     0.642520000000     0.392348   
C24      C      0.140710000000     0.457810000000     0.634040000000     0.389848   
C25      C      0.636880000000     0.980150000000     0.315670000000     0.391829   
C26      C      0.319050000000     0.972260000000     0.318160000000     0.389885   
C27      C      0.487020000000     0.815490000000     0.321400000000     0.391686   
C28      C      0.490690000000     0.133190000000     0.312240000000     0.391026   
C29      C      0.320550000000     0.985460000000     0.637710000000     0.388959   
C30      C      0.638760000000     0.984110000000     0.636830000000     0.389653   
C31      C      0.319520000000     0.819890000000     0.477250000000     0.389876   
C32      C      0.319490000000     0.137740000000     0.475400000000     0.389188   
C33      C      0.637740000000     0.137000000000     0.490290000000     0.394289   
C34      C      0.638510000000     0.817830000000     0.475180000000     0.39127    
C35      C      0.485530000000     0.823450000000     0.641330000000     0.39282    
C36      C      0.491200000000     0.142570000000     0.630390000000     0.396067   
C37      C      0.317470000000     0.318890000000     0.958970000000     0.391947   
C38      C      0.315970000000     0.635910000000     0.986080000000     0.392879   
C39      C      0.313030000000     0.483890000000     0.131010000000     0.394133   
C40      C      0.320540000000     0.487650000000     0.812450000000     0.39174    
C41      C      0.634040000000     0.639670000000     0.981080000000     0.390633   
C42      C      0.635640000000     0.319240000000     0.981390000000     0.389332   
C43      C      0.467890000000     0.633170000000     0.140290000000     0.389464   
C44      C      0.467900000000     0.641300000000     0.821120000000     0.395228   
C45      C      0.477850000000     0.322630000000     0.813420000000     0.392087   
C46      C      0.469540000000     0.313240000000     0.130860000000     0.388969   
C47      C      0.629080000000     0.481070000000     0.141570000000     0.394406   
C48      C      0.639270000000     0.485420000000     0.821020000000     0.391301   
C49      C      0.457110000000     0.279940000000     0.241500000000    -0.0140995  
C50      C      0.470060000000     0.199680000000     0.156720000000    -0.0217995  
C51      C      0.503700000000     0.244050000000     0.281770000000    -0.0121784  
C52      C      0.515480000000     0.163060000000     0.199050000000     0.0140763  
C53      C      0.514210000000     0.096240000000     0.180800000000     0.0536344  
C54      C      0.502630000000     0.783470000000     0.210580000000    -0.0125091  
C55      C      0.495090000000     0.702650000000     0.294880000000    -0.0175527  
C56      C      0.458540000000     0.744790000000     0.169740000000    -0.0144348  
C57      C      0.449680000000     0.664940000000     0.254180000000     0.009512   
C58      C      0.451890000000     0.598840000000     0.273500000000     0.0565865  
C59      C      0.453400000000     0.673010000000     0.710230000000    -0.011938   
C60      C      0.455360000000     0.753740000000     0.794890000000    -0.0181034  
C61      C      0.498340000000     0.712550000000     0.671490000000    -0.0134692  
C62      C      0.500840000000     0.793110000000     0.755950000000     0.00964312 
C63      C      0.494870000000     0.859210000000     0.774790000000     0.0581886  
C64      C      0.469240000000     0.211280000000     0.782430000000    -0.0140206  
C65      C      0.466250000000     0.295900000000     0.701120000000    -0.0181385  
C66      C      0.511910000000     0.172900000000     0.740150000000    -0.0124607  
C67      C      0.509460000000     0.256870000000     0.659450000000     0.0104402  
C68      C      0.499710000000     0.275620000000     0.593680000000     0.0560121  
C69      C      0.666910000000     0.248180000000     0.507910000000    -0.0133193  
C70      C      0.747410000000     0.164840000000     0.515990000000    -0.0184354  
C71      C      0.709470000000     0.286120000000     0.464940000000    -0.0134154  
C72      C      0.790360000000     0.200980000000     0.471670000000     0.0126036  
C73      C      0.856000000000     0.182380000000     0.483790000000     0.0500724  
C74      C      0.668650000000     0.705710000000     0.466540000000    -0.0129925  
C75      C      0.750550000000     0.789230000000     0.467850000000    -0.0181175  
C76      C      0.708520000000     0.666410000000     0.511300000000    -0.0140558  
C77      C      0.788490000000     0.750670000000     0.514840000000     0.00948219 
C78      C      0.854530000000     0.769760000000     0.511000000000     0.0551757  
C79      C      0.208540000000     0.168080000000     0.491640000000    -0.0131369  
C80      C      0.290320000000     0.249980000000     0.472200000000    -0.0185007  
C81      C      0.163670000000     0.203620000000     0.448340000000    -0.0138503  
C82      C      0.246210000000     0.281320000000     0.425490000000     0.0112548  
C83      C      0.264740000000     0.346730000000     0.415460000000     0.061475   
C84      C      0.207890000000     0.789810000000     0.468370000000    -0.0125641  
C85      C      0.291670000000     0.709480000000     0.457360000000    -0.0172393  
C86      C      0.169160000000     0.743730000000     0.507060000000    -0.0140363  
C87      C      0.253760000000     0.663610000000     0.497140000000     0.00938128 
C88      C      0.272270000000     0.599960000000     0.478140000000     0.0583122  
C89      C      0.784570000000     0.467820000000     0.211320000000    -0.0125408  
C90      C      0.706130000000     0.448970000000     0.295530000000    -0.0168275  
C91      C      0.736590000000     0.504790000000     0.174140000000    -0.0130989  
C92      C      0.656060000000     0.483110000000     0.257110000000     0.00834507 
C93      C      0.595960000000     0.452810000000     0.271980000000     0.0590546  
C94      C      0.284080000000     0.513000000000     0.238840000000    -0.0105218  
C95      C      0.204600000000     0.514180000000     0.154700000000    -0.0157036  
C96      C      0.239160000000     0.481630000000     0.283570000000    -0.015368   
C97      C      0.155070000000     0.487520000000     0.199270000000     0.00841865 
C98      C      0.095950000000     0.519580000000     0.183980000000     0.0607404  
C99      C      0.209630000000     0.500640000000     0.780330000000    -0.0126234  
C100     C      0.293100000000     0.488270000000     0.699250000000    -0.0182465  
C101     C      0.169980000000     0.451660000000     0.746310000000    -0.0144479  
C102     C      0.253620000000     0.437650000000     0.667380000000     0.00993762 
C103     C      0.272270000000     0.430940000000     0.601550000000     0.0586638  
C104     C      0.671960000000     0.496030000000     0.709930000000    -0.0119568  
C105     C      0.751940000000     0.494780000000     0.795290000000    -0.0176486  
C106     C      0.711670000000     0.450220000000     0.672280000000    -0.0132939  
C107     C      0.791530000000     0.448740000000     0.757090000000     0.00991762 
C108     C      0.857370000000     0.455320000000     0.776140000000     0.0541949  
C109     C      0.787670000000     0.709180000000     0.012790000000    -0.0112972  
C110     C      0.707140000000     0.793130000000     0.015080000000    -0.0161824  
C111     C      0.745170000000     0.669190000000     0.971390000000    -0.0150414  
C112     C      0.664760000000     0.754390000000     0.972250000000     0.00791138 
C113     C      0.599660000000     0.773320000000     0.984520000000     0.0597436  
C114     C      0.786830000000     0.249690000000     0.946870000000    -0.0116859  
C115     C      0.705690000000     0.166020000000     0.952310000000    -0.0176882  
C116     C      0.747380000000     0.290750000000     0.990390000000    -0.0161389  
C117     C      0.668170000000     0.205730000000     0.998480000000     0.00821275 
C118     C      0.602380000000     0.185880000000     0.996320000000     0.057647   
C119     C      0.205240000000     0.664950000000     0.003740000000    -0.00533646 
C120     C      0.289140000000     0.744930000000     0.013340000000    -0.0141094  
C121     C      0.165200000000     0.711200000000     0.967040000000    -0.0174829  
C122     C      0.250690000000     0.791510000000     0.975190000000     0.00831007 
C123     C      0.269220000000     0.854880000000     0.995450000000     0.0561876  
C124     C      0.165400000000     0.251340000000     0.982360000000    -0.0146867  
C125     C      0.246980000000     0.167050000000     0.980290000000    -0.0201871  
C126     C      0.206710000000     0.291460000000     0.939940000000    -0.0126342  
C127     C      0.285530000000     0.206530000000     0.934980000000     0.0112805  
C128     C      0.351240000000     0.186510000000     0.937750000000     0.0565569  
C129     C      0.750500000000     0.989970000000     0.668280000000    -0.0145396  
C130     C      0.666190000000     0.993410000000     0.749490000000    -0.0210695  
C131     C      0.787110000000     0.944070000000     0.709410000000    -0.014059   
C132     C      0.702100000000     0.945270000000     0.788560000000     0.0104284  
C133     C      0.682530000000     0.949900000000     0.854610000000     0.0588624  
C134     C      0.289100000000     0.997180000000     0.749270000000    -0.0146838  
C135     C      0.208850000000     0.999450000000     0.664490000000    -0.0199407  
C136     C      0.245920000000     0.955980000000     0.788850000000    -0.0135751  
C137     C      0.166490000000     0.956470000000     0.703120000000     0.0101305  
C138     C      0.101420000000     0.967710000000     0.683450000000     0.0567551  
C139     C      0.249570000000     0.004330000000     0.165600000000    -0.00835155 
C140     C      0.166630000000     0.004610000000     0.247770000000    -0.0134505  
C141     C      0.289380000000     0.960940000000     0.206480000000    -0.0163073  
C142     C      0.204940000000     0.958540000000     0.286900000000     0.00763065 
C143     C      0.185810000000     0.964150000000     0.353040000000     0.0588162  
C144     C      0.789270000000     0.021490000000     0.248850000000    -0.0109725  
C145     C      0.709170000000     0.028720000000     0.165230000000    -0.017128   
C146     C      0.748010000000     0.976350000000     0.285770000000    -0.0157124  
C147     C      0.666930000000     0.982890000000     0.200470000000     0.0107242  
C148     C      0.601080000000     0.994490000000     0.182360000000     0.0526951  
C149     C      0.992650000000     0.235800000000     0.772930000000    -0.0135818  
C150     C      0.978160000000     0.150210000000     0.693150000000    -0.0224271  
C151     C      0.947580000000     0.276330000000     0.736190000000    -0.0132469  
C152     C      0.936640000000     0.194760000000     0.654230000000     0.0136798  
C153     C      0.940560000000     0.177110000000     0.587320000000     0.0502021  
C154     C      0.954920000000     0.735410000000     0.679610000000    -0.0117932  
C155     C      0.955090000000     0.650110000000     0.759400000000    -0.0181615  
C156     C      0.995450000000     0.775390000000     0.721910000000    -0.0157311  
C157     C      0.991460000000     0.692640000000     0.804920000000     0.00737092 
C158     C      0.972610000000     0.675820000000     0.869220000000     0.0560248  
C159     C      0.950270000000     0.682250000000     0.220860000000    -0.0124302  
C160     C      0.960420000000     0.760830000000     0.306620000000    -0.0208017  
C161     C      0.995370000000     0.719840000000     0.180760000000    -0.0147096  
C162     C      0.002460000000     0.801280000000     0.264200000000     0.0132758  
C163     C      0.995100000000     0.867410000000     0.282310000000     0.0548959  
C164     C      0.992820000000     0.181940000000     0.238290000000    -0.0140094  
C165     C      0.985310000000     0.262040000000     0.152920000000    -0.0202339  
C166     C      0.946350000000     0.219180000000     0.277090000000    -0.0132336  
C167     C      0.940970000000     0.300770000000     0.194350000000     0.010138   
C168     C      0.945800000000     0.367210000000     0.176680000000     0.0551681  
H1       H      0.888290000000     0.896440000000     0.076090000000     0.208442   
H2       H      0.065730000000     0.074150000000     0.061140000000     0.213599   
H3       H      0.886790000000     0.061970000000     0.883210000000     0.209872   
H4       H      0.064910000000     0.885340000000     0.894800000000     0.213676   
H5       H      0.884670000000     0.572040000000     0.397740000000     0.209927   
H6       H      0.062810000000     0.393100000000     0.379630000000     0.212042   
H7       H      0.890230000000     0.383390000000     0.562860000000     0.215774   
H8       H      0.069630000000     0.559130000000     0.571790000000     0.208043   
H9       H      0.390840000000     0.887020000000     0.390200000000     0.210567   
H10      H      0.569660000000     0.065560000000     0.386500000000     0.211797   
H11      H      0.569490000000     0.891390000000     0.568350000000     0.210219   
H12      H      0.391340000000     0.071080000000     0.564690000000     0.210647   
H13      H      0.385450000000     0.564020000000     0.064850000000     0.217093   
H14      H      0.389740000000     0.392090000000     0.881620000000     0.212881   
H15      H      0.562860000000     0.387520000000     0.066440000000     0.211113   
H16      H      0.566220000000     0.570730000000     0.891070000000     0.209735   
H17      H      0.551210000000     0.262310000000     0.271690000000     0.0428245  
H18      H      0.460490000000     0.330420000000     0.252770000000     0.0553365  
H19      H      0.563200000000     0.180550000000     0.188620000000     0.0360368  
H20      H      0.484070000000     0.193210000000     0.107110000000     0.0600167  
H21      H      0.409340000000     0.264380000000     0.254370000000     0.0452253  
H22      H      0.422470000000     0.179650000000     0.162170000000     0.0508629  
H23      H      0.493430000000     0.254220000000     0.331660000000     0.048601   
H24      H      0.410190000000     0.761800000000     0.177720000000     0.0407647  
H25      H      0.495940000000     0.833700000000     0.199360000000     0.0509803  
H26      H      0.401950000000     0.681900000000     0.265420000000     0.0363814  
H27      H      0.483810000000     0.694860000000     0.345080000000     0.047329   
H28      H      0.551350000000     0.771010000000     0.197880000000     0.0453404  
H29      H      0.543270000000     0.685110000000     0.286710000000     0.0462563  
H30      H      0.470120000000     0.754270000000     0.120010000000     0.0523011  
H31      H      0.546690000000     0.697050000000     0.682130000000     0.0380677  
H32      H      0.461350000000     0.622940000000     0.699090000000     0.0433534  
H33      H      0.548730000000     0.778250000000     0.769280000000     0.0377079  
H34      H      0.464490000000     0.761780000000     0.845490000000     0.0522562  
H35      H      0.405000000000     0.684760000000     0.695750000000     0.0422573  
H36      H      0.406910000000     0.769550000000     0.784950000000     0.0465938  
H37      H      0.489650000000     0.702500000000     0.621270000000     0.043044   
H38      H      0.561040000000     0.184090000000     0.752490000000     0.0429237  
H39      H      0.481440000000     0.200740000000     0.831810000000     0.0556539  
H40      H      0.558130000000     0.270110000000     0.671620000000     0.0378807  
H41      H      0.475500000000     0.346350000000     0.692700000000     0.0472117  
H42      H      0.420340000000     0.195880000000     0.774590000000     0.0435297  
H43      H      0.417010000000     0.286580000000     0.687520000000     0.0439968  
H44      H      0.504490000000     0.122680000000     0.750860000000     0.0488631  
H45      H      0.696360000000     0.275660000000     0.415710000000     0.0409908  
H46      H      0.617650000000     0.258690000000     0.495890000000     0.0505675  
H47      H      0.779450000000     0.184400000000     0.423570000000     0.0392228  
H48      H      0.756540000000     0.113880000000     0.511570000000     0.0481955  
H49      H      0.674960000000     0.263710000000     0.556900000000     0.0412878  
H50      H      0.758560000000     0.178520000000     0.564990000000     0.0429624  
H51      H      0.699640000000     0.336440000000     0.472940000000     0.0441442  
H52      H      0.692940000000     0.676440000000     0.559900000000     0.0388927  
H53      H      0.618690000000     0.695740000000     0.475930000000     0.0429135  
H54      H      0.772050000000     0.764040000000     0.562360000000     0.0371284  
H55      H      0.759140000000     0.839780000000     0.476340000000     0.0467458  
H56      H      0.678810000000     0.690350000000     0.417900000000     0.0407003  
H57      H      0.767150000000     0.778340000000     0.419720000000     0.0443973  
H58      H      0.698740000000     0.616300000000     0.502120000000     0.0425552  
H59      H      0.167280000000     0.183030000000     0.400700000000     0.0427272  
H60      H      0.198350000000     0.117320000000     0.488010000000     0.0496649  
H61      H      0.253470000000     0.257460000000     0.379790000000     0.0381607  
H62      H      0.339350000000     0.257450000000     0.456940000000     0.0536318  
H63      H      0.198500000000     0.182390000000     0.540620000000     0.0425277  
H64      H      0.284480000000     0.272420000000     0.518820000000     0.0521932  
H65      H      0.115340000000     0.195530000000     0.465160000000     0.0503379  
H66      H      0.178710000000     0.752760000000     0.557400000000     0.0406888  
H67      H      0.197700000000     0.837920000000     0.485050000000     0.049987   
H68      H      0.268540000000     0.669830000000     0.546620000000     0.0384209  
H69      H      0.342200000000     0.700070000000     0.464460000000     0.0469986  
H70      H      0.192600000000     0.786640000000     0.418750000000     0.0438436  
H71      H      0.281330000000     0.700920000000     0.407010000000     0.044014   
H72      H      0.119130000000     0.754350000000     0.498870000000     0.0476643  
H73      H      0.741530000000     0.555000000000     0.186620000000     0.041071   
H74      H      0.831440000000     0.487380000000     0.201000000000     0.0508167  
H75      H      0.653650000000     0.532110000000     0.274220000000     0.0405663  
H76      H      0.696130000000     0.455970000000     0.346130000000     0.046361   
H77      H      0.783880000000     0.418510000000     0.194890000000     0.0440138  
H78      H      0.703000000000     0.397840000000     0.286220000000     0.0434855  
H79      H      0.748400000000     0.500310000000     0.123740000000     0.0449343  
H80      H      0.248340000000     0.430510000000     0.283120000000     0.0505072  
H81      H      0.332140000000     0.498700000000     0.251830000000     0.054956   
H82      H      0.148910000000     0.437190000000     0.187970000000     0.0406257  
H83      H      0.193690000000     0.498020000000     0.106440000000     0.0467326  
H84      H      0.280610000000     0.564490000000     0.245130000000     0.0420144  
H85      H      0.201780000000     0.566200000000     0.154330000000     0.0416919  
H86      H      0.250270000000     0.499630000000     0.331030000000     0.0610164  
H87      H      0.180000000000     0.405230000000     0.767430000000     0.0400185  
H88      H      0.199120000000     0.498500000000     0.831160000000     0.0432164  
H89      H      0.265900000000     0.392640000000     0.690370000000     0.0376319  
H90      H      0.343420000000     0.478150000000     0.691800000000     0.0477631  
H91      H      0.195230000000     0.547600000000     0.763390000000     0.0400602  
H92      H      0.282690000000     0.534120000000     0.677030000000     0.0456913  
H93      H      0.120090000000     0.462200000000     0.755310000000     0.0447588  
H94      H      0.696090000000     0.402010000000     0.683850000000     0.0396943  
H95      H      0.622100000000     0.487690000000     0.698650000000     0.0420581  
H96      H      0.776760000000     0.400870000000     0.770910000000     0.0369352  
H97      H      0.759500000000     0.486020000000     0.846010000000     0.0464866  
H98      H      0.683750000000     0.544260000000     0.694620000000     0.039703   
H99      H      0.768120000000     0.543180000000     0.785220000000     0.0438329  
H100     H      0.701880000000     0.457740000000     0.621830000000     0.0429003  
H101     H      0.758620000000     0.677130000000     0.921770000000     0.042568   
H102     H      0.836970000000     0.698230000000     0.001240000000     0.0501853  
H103     H      0.675530000000     0.768120000000     0.923240000000     0.0414901  
H104     H      0.698270000000     0.843670000000     0.006870000000     0.0545436  
H105     H      0.779660000000     0.695640000000     0.062370000000     0.0399753  
H106     H      0.694780000000     0.783070000000     0.064680000000     0.0442952  
H107     H      0.754860000000     0.619360000000     0.982150000000     0.0446628  
H108     H      0.764070000000     0.283620000000     0.039140000000     0.0421221  
H109     H      0.836860000000     0.260510000000     0.954820000000     0.0421825  
H110     H      0.685380000000     0.194020000000     0.046170000000     0.0399021  
H111     H      0.697280000000     0.115640000000     0.961970000000     0.0524392  
H112     H      0.775620000000     0.262580000000     0.897750000000     0.039247   
H113     H      0.688820000000     0.175780000000     0.904020000000     0.0458402  
H114     H      0.756270000000     0.340360000000     0.978020000000     0.0438407  
H115     H      0.172280000000     0.702160000000     0.916300000000     0.0413505  
H116     H      0.194170000000     0.616890000000     0.987520000000     0.0414228  
H117     H      0.264600000000     0.786470000000     0.925320000000     0.0397441  
H118     H      0.339560000000     0.754570000000     0.005830000000     0.0503344  
H119     H      0.192220000000     0.668120000000     0.054010000000     0.039561   
H120     H      0.279370000000     0.752190000000     0.064020000000     0.0432057  
H121     H      0.115540000000     0.700820000000     0.977560000000     0.0487411  
H122     H      0.192350000000     0.283080000000     0.890640000000     0.0387775  
H123     H      0.115800000000     0.261810000000     0.971630000000     0.0431944  
H124     H      0.268900000000     0.195280000000     0.886960000000     0.037851   
H125     H      0.255320000000     0.116730000000     0.970300000000     0.0514129  
H126     H      0.174090000000     0.265360000000     0.031690000000     0.0426959  
H127     H      0.263070000000     0.176360000000     0.028920000000     0.0484853  
H128     H      0.197180000000     0.341360000000     0.950420000000     0.0426134  
H129     H      0.774940000000     0.895830000000     0.694410000000     0.0405487  
H130     H      0.760670000000     0.979550000000     0.618390000000     0.0437318  
H131     H      0.687080000000     0.898310000000     0.772080000000     0.0393341  
H132     H      0.615330000000     0.987470000000     0.757690000000     0.0545525  
H133     H      0.767780000000     0.037950000000     0.678150000000     0.0418582  
H134     H      0.679130000000     0.041110000000     0.765670000000     0.0468339  
H135     H      0.837600000000     0.950640000000     0.700000000000     0.0461552  
H136     H      0.259020000000     0.906380000000     0.780570000000     0.0418917  
H137     H      0.338220000000     0.984830000000     0.760270000000     0.0491499  
H138     H      0.178040000000     0.907540000000     0.690000000000     0.0387179  
H139     H      0.200420000000     0.990730000000     0.613880000000     0.05056    
H140     H      0.281750000000     0.046670000000     0.763290000000     0.0434866  
H141     H      0.195840000000     0.048900000000     0.674050000000     0.0462228  
H142     H      0.255390000000     0.966070000000     0.838920000000     0.0483303  
H143     H      0.280500000000     0.912000000000     0.191450000000     0.044522   
H144     H      0.259580000000     0.994320000000     0.115640000000     0.0514833  
H145     H      0.191420000000     0.910740000000     0.271620000000     0.0406859  
H146     H      0.116170000000     0.996840000000     0.256890000000     0.051969   
H147     H      0.264220000000     0.053280000000     0.174950000000     0.0422961  
H148     H      0.178000000000     0.053050000000     0.262940000000     0.0447703  
H149     H      0.339220000000     0.971180000000     0.196780000000     0.0512824  
H150     H      0.762830000000     0.927880000000     0.274380000000     0.0419668  
H151     H      0.838930000000     0.011290000000     0.259530000000     0.0473513  
H152     H      0.678490000000     0.935490000000     0.182570000000     0.0410321  
H153     H      0.700440000000     0.025120000000     0.114060000000     0.051621   
H154     H      0.779160000000     0.069800000000     0.265100000000     0.0403453  
H155     H      0.696880000000     0.077140000000     0.179750000000     0.0431161  
H156     H      0.757460000000     0.983750000000     0.336320000000     0.0445561  
H157     H      0.899410000000     0.266180000000     0.752630000000     0.0396386  
H158     H      0.988450000000     0.247990000000     0.823260000000     0.0432252  
H159     H      0.887650000000     0.186370000000     0.669070000000     0.0339267  
H160     H      0.960620000000     0.101620000000     0.687540000000     0.0530689  
H161     H      0.040960000000     0.247410000000     0.758010000000     0.0447476  
H162     H      0.026470000000     0.151590000000     0.674190000000     0.0522561  
H163     H      0.957450000000     0.326000000000     0.747450000000     0.048392   
H164     H      0.045170000000     0.765670000000     0.710740000000     0.0420534  
H165     H      0.965670000000     0.747660000000     0.630290000000     0.0504379  
H166     H      0.041670000000     0.680620000000     0.800180000000     0.0372348  
H167     H      0.968930000000     0.600720000000     0.767800000000     0.051013   
H168     H      0.905220000000     0.747430000000     0.688350000000     0.0444799  
H169     H      0.904320000000     0.653870000000     0.769700000000     0.0467425  
H170     H      0.986490000000     0.825080000000     0.709960000000     0.0489261  
H171     H      0.043520000000     0.703060000000     0.190370000000     0.0490562  
H172     H      0.954210000000     0.632130000000     0.208280000000     0.0528221  
H173     H      0.051460000000     0.788280000000     0.275120000000     0.0399689  
H174     H      0.974780000000     0.767370000000     0.356200000000     0.0524339  
H175     H      0.901980000000     0.697350000000     0.209400000000     0.0397138  
H176     H      0.911420000000     0.777470000000     0.302290000000     0.0444274  
H177     H      0.985030000000     0.709320000000     0.130960000000     0.0488392  
H178     H      0.898560000000     0.202820000000     0.265200000000     0.0432468  
H179     H      0.987470000000     0.131670000000     0.250030000000     0.0471426  
H180     H      0.892740000000     0.285840000000     0.182390000000     0.0381327  
H181     H      0.972590000000     0.268930000000     0.102940000000     0.0469368  
H182     H      0.040710000000     0.196230000000     0.252160000000     0.0423998  
H183     H      0.033730000000     0.279640000000     0.159350000000     0.0448677  
H184     H      0.954280000000     0.208150000000     0.327230000000     0.0496451  
N1       N      0.501270000000     0.176860000000     0.265990000000    -0.165642   
N2       N      0.467680000000     0.266360000000     0.174720000000    -0.161544   
N3       N      0.501790000000     0.035750000000     0.159970000000    -0.0743011  
N4       N      0.461790000000     0.677760000000     0.186630000000    -0.163599   
N5       N      0.492710000000     0.769210000000     0.277330000000    -0.163845   
N6       N      0.453340000000     0.538470000000     0.292670000000    -0.099426   
N7       N      0.492050000000     0.779410000000     0.687990000000    -0.165524   
N8       N      0.460810000000     0.687420000000     0.777230000000    -0.164709   
N9       N      0.489570000000     0.919700000000     0.792970000000    -0.104822   
N10      N      0.501140000000     0.189140000000     0.673810000000    -0.164927   
N11      N      0.474240000000     0.278320000000     0.767310000000    -0.164281   
N12      N      0.490460000000     0.293780000000     0.533580000000    -0.106377   
N13      N      0.775930000000     0.269370000000     0.473990000000    -0.165743   
N14      N      0.682120000000     0.181380000000     0.502740000000    -0.163791   
N15      N      0.917170000000     0.160210000000     0.481230000000    -0.0789173  
N16      N      0.775320000000     0.682830000000     0.505550000000    -0.164428   
N17      N      0.683950000000     0.772700000000     0.472210000000    -0.164278   
N18      N      0.914920000000     0.788250000000     0.507290000000    -0.107974   
N19      N      0.180600000000     0.270530000000     0.445280000000    -0.163602   
N20      N      0.274340000000     0.183170000000     0.477520000000    -0.163157   
N21      N      0.284680000000     0.405920000000     0.405460000000    -0.0959276  
N22      N      0.185730000000     0.678060000000     0.492860000000    -0.163684   
N23      N      0.274720000000     0.774440000000     0.471970000000    -0.164123   
N24      N      0.290690000000     0.542240000000     0.459730000000    -0.0950844  
N25      N      0.672370000000     0.484560000000     0.189140000000    -0.164605   
N26      N      0.769240000000     0.469460000000     0.278360000000    -0.164855   
N27      N      0.541620000000     0.424070000000     0.286830000000    -0.102757   
N28      N      0.173160000000     0.492250000000     0.266670000000    -0.163281   
N29      N      0.267860000000     0.497030000000     0.174190000000    -0.165411   
N30      N      0.042170000000     0.549150000000     0.168740000000    -0.103503   
N31      N      0.186290000000     0.450040000000     0.679050000000    -0.163861   
N32      N      0.276410000000     0.491590000000     0.766110000000    -0.164434   
N33      N      0.291930000000     0.423780000000     0.541810000000    -0.0929097  
N34      N      0.778320000000     0.456750000000     0.689000000000    -0.16483    
N35      N      0.685760000000     0.489880000000     0.777190000000    -0.165054   
N36      N      0.917630000000     0.461360000000     0.794470000000    -0.109774   
N37      N      0.678640000000     0.686250000000     0.979190000000    -0.1644     
N38      N      0.772810000000     0.775900000000     0.005260000000    -0.162594   
N39      N      0.540120000000     0.791560000000     0.995730000000    -0.105248   
N40      N      0.680630000000     0.273400000000     0.987000000000    -0.16419    
N41      N      0.772070000000     0.183040000000     0.956210000000    -0.1646     
N42      N      0.542460000000     0.165900000000     0.994250000000    -0.098554   
N43      N      0.182780000000     0.776830000000     0.980380000000    -0.164482   
N44      N      0.271640000000     0.680600000000     0.996960000000    -0.16754    
N45      N      0.287230000000     0.912810000000     0.013760000000    -0.104451   
N46      N      0.273030000000     0.273860000000     0.947200000000    -0.165743   
N47      N      0.180610000000     0.184460000000     0.975420000000    -0.164472   
N48      N      0.411160000000     0.166560000000     0.940080000000    -0.098889   
N49      N      0.770190000000     0.951790000000     0.776140000000    -0.164479   
N50      N      0.683320000000     0.987300000000     0.682860000000    -0.163232   
N51      N      0.663650000000     0.953950000000     0.915050000000    -0.103854   
N52      N      0.179610000000     0.964450000000     0.771270000000    -0.164056   
N53      N      0.274660000000     0.990660000000     0.682220000000    -0.163287   
N54      N      0.041910000000     0.978040000000     0.664560000000    -0.105857   
N55      N      0.272750000000     0.967090000000     0.273480000000    -0.163723   
N56      N      0.182910000000     0.997960000000     0.181140000000    -0.164889   
N57      N      0.167350000000     0.969200000000     0.413540000000    -0.105839   
N58      N      0.681230000000     0.983390000000     0.269060000000    -0.165136   
N59      N      0.774670000000     0.016680000000     0.181850000000    -0.164408   
N60      N      0.539760000000     0.991290000000     0.160710000000    -0.0770538  
N61      N      0.952760000000     0.260900000000     0.669110000000    -0.165545   
N62      N      0.980580000000     0.169270000000     0.759690000000    -0.163458   
N63      N      0.954150000000     0.157750000000     0.526530000000    -0.0770486  
N64      N      0.984010000000     0.760130000000     0.788410000000    -0.163986   
N65      N      0.964840000000     0.668890000000     0.693870000000    -0.164147   
N66      N      0.955320000000     0.659640000000     0.928080000000    -0.108166   
N67      N      0.991180000000     0.787020000000     0.196700000000    -0.164987   
N68      N      0.962480000000     0.694650000000     0.287440000000    -0.163196   
N69      N      0.988560000000     0.928010000000     0.299740000000    -0.106003   
N70      N      0.951850000000     0.286280000000     0.261780000000    -0.164397   
N71      N      0.983820000000     0.195590000000     0.171250000000    -0.164113   
N72      N      0.949990000000     0.428040000000     0.159420000000    -0.103219   
O1       O      0.977110000000     0.163000000000     0.069230000000    -0.37214    
O2       O      0.983610000000     0.810000000000     0.092380000000    -0.375248   
O3       O      0.876660000000     0.998980000000     0.155730000000    -0.375026   
O4       O      0.080170000000     0.992160000000     0.153720000000    -0.370955   
O5       O      0.155130000000     0.987630000000     0.078090000000    -0.368157   
O6       O      0.801420000000     0.997670000000     0.080210000000    -0.374364   
O7       O      0.982850000000     0.889250000000     0.163080000000    -0.369593   
O8       O      0.980930000000     0.091660000000     0.148540000000    -0.37468    
O9       O      0.041080000000     0.920630000000     0.045510000000    -0.504576   
O10      O      0.914520000000     0.046340000000     0.037930000000    -0.505236   
O11      O      0.913790000000     0.920090000000     0.047360000000    -0.652791   
O12      O      0.039580000000     0.046600000000     0.036890000000    -0.652995   
O13      O      0.978540000000     0.795160000000     0.890050000000    -0.369227   
O14      O      0.980070000000     0.147310000000     0.864210000000    -0.376296   
O15      O      0.800870000000     0.878100000000     0.992490000000    -0.373521   
O16      O      0.152660000000     0.879440000000     0.980540000000    -0.373872   
O17      O      0.152240000000     0.081900000000     0.972900000000    -0.377398   
O18      O      0.800590000000     0.080800000000     0.968110000000    -0.37185    
O19      O      0.873440000000     0.961640000000     0.802500000000    -0.374467   
O20      O      0.076700000000     0.967260000000     0.801500000000    -0.367895   
O21      O      0.799700000000     0.966260000000     0.878720000000    -0.367658   
O22      O      0.152930000000     0.974440000000     0.874960000000    -0.371771   
O23      O      0.875710000000     0.802250000000     0.994450000000    -0.37207    
O24      O      0.875140000000     0.156820000000     0.964340000000    -0.377997   
O25      O      0.077460000000     0.157630000000     0.970630000000    -0.376475   
O26      O      0.079190000000     0.803190000000     0.986680000000    -0.370738   
O27      O      0.977900000000     0.864940000000     0.809900000000    -0.372678   
O28      O      0.975420000000     0.067800000000     0.793190000000    -0.372278   
O29      O      0.038910000000     0.038950000000     0.909960000000    -0.503084   
O30      O      0.913130000000     0.911580000000     0.920390000000    -0.507458   
O31      O      0.912910000000     0.038310000000     0.911340000000    -0.65226    
O32      O      0.038940000000     0.912720000000     0.919430000000    -0.655214   
O33      O      0.966180000000     0.308320000000     0.365600000000    -0.372246   
O34      O      0.973380000000     0.661060000000     0.388530000000    -0.37399    
O35      O      0.871470000000     0.482590000000     0.304000000000    -0.3731     
O36      O      0.071610000000     0.487510000000     0.299010000000    -0.373386   
O37      O      0.149470000000     0.486080000000     0.371310000000    -0.364244   
O38      O      0.798370000000     0.474960000000     0.381110000000    -0.37895    
O39      O      0.968260000000     0.590160000000     0.309030000000    -0.372538   
O40      O      0.964460000000     0.387790000000     0.295190000000    -0.364772   
O41      O      0.039810000000     0.543050000000     0.417520000000    -0.509058   
O42      O      0.912650000000     0.418150000000     0.414130000000    -0.508235   
O43      O      0.911710000000     0.544640000000     0.421220000000    -0.654393   
O44      O      0.038510000000     0.417440000000     0.408820000000    -0.65804    
O45      O      0.974910000000     0.646390000000     0.590220000000    -0.374368   
O46      O      0.970210000000     0.293250000000     0.568000000000    -0.368453   
O47      O      0.800950000000     0.579220000000     0.492960000000    -0.376418   
O48      O      0.154910000000     0.575710000000     0.483540000000    -0.368691   
O49      O      0.154250000000     0.373790000000     0.460480000000    -0.36297    
O50      O      0.801810000000     0.373550000000     0.478390000000    -0.37239    
O51      O      0.880700000000     0.463910000000     0.657760000000    -0.365794   
O52      O      0.083360000000     0.460430000000     0.652690000000    -0.377337   
O53      O      0.803260000000     0.468110000000     0.585310000000    -0.377584   
O54      O      0.156850000000     0.462060000000     0.575840000000    -0.361541   
O55      O      0.877620000000     0.652550000000     0.495420000000    -0.365098   
O56      O      0.877860000000     0.300020000000     0.470030000000    -0.368317   
O57      O      0.078780000000     0.299040000000     0.461030000000    -0.375168   
O58      O      0.081600000000     0.652250000000     0.488620000000    -0.371977   
O59      O      0.975140000000     0.567230000000     0.661710000000    -0.372801   
O60      O      0.971750000000     0.363770000000     0.647500000000    -0.374077   
O61      O      0.042930000000     0.408170000000     0.537120000000    -0.509405   
O62      O      0.916970000000     0.535580000000     0.546590000000    -0.506088   
O63      O      0.916390000000     0.410640000000     0.538350000000    -0.656623   
O64      O      0.043140000000     0.535200000000     0.544220000000    -0.6528     
O65      O      0.655300000000     0.981050000000     0.373470000000    -0.377437   
O66      O      0.303080000000     0.975130000000     0.376260000000    -0.368997   
O67      O      0.485540000000     0.872840000000     0.302380000000    -0.370892   
O68      O      0.485780000000     0.075150000000     0.296770000000    -0.367341   
O69      O      0.487980000000     0.152490000000     0.369590000000    -0.37896    
O70      O      0.484190000000     0.799260000000     0.379650000000    -0.373613   
O71      O      0.376630000000     0.972690000000     0.299780000000    -0.373212   
O72      O      0.579120000000     0.976550000000     0.299650000000    -0.367191   
O73      O      0.414890000000     0.040900000000     0.411330000000    -0.508936   
O74      O      0.542040000000     0.913820000000     0.415340000000    -0.50627    
O75      O      0.416440000000     0.913750000000     0.415940000000    -0.656021   
O76      O      0.542930000000     0.039900000000     0.412140000000    -0.652549   
O77      O      0.303540000000     0.982400000000     0.579750000000    -0.374761   
O78      O      0.656810000000     0.980830000000     0.579070000000    -0.372187   
O79      O      0.377350000000     0.802530000000     0.478100000000    -0.378117   
O80      O      0.377240000000     0.155180000000     0.472460000000    -0.374447   
O81      O      0.580500000000     0.155020000000     0.483980000000    -0.366607   
O82      O      0.580840000000     0.800180000000     0.477230000000    -0.373264   
O83      O      0.483490000000     0.881690000000     0.656630000000    -0.371785   
O84      O      0.488880000000     0.085360000000     0.649950000000    -0.371059   
O85      O      0.483430000000     0.804200000000     0.583940000000    -0.378594   
O86      O      0.486130000000     0.157840000000     0.572330000000    -0.368145   
O87      O      0.301710000000     0.877590000000     0.478790000000    -0.370961   
O88      O      0.655880000000     0.875720000000     0.475230000000    -0.378765   
O89      O      0.655410000000     0.079350000000     0.487230000000    -0.374306   
O90      O      0.301980000000     0.079960000000     0.477550000000    -0.370968   
O91      O      0.378200000000     0.985440000000     0.655730000000    -0.374553   
O92      O      0.580920000000     0.984850000000     0.653830000000    -0.370063   
O93      O      0.541300000000     0.041790000000     0.536850000000    -0.506477   
O94      O      0.416030000000     0.916180000000     0.542800000000    -0.50754    
O95      O      0.543010000000     0.916640000000     0.542010000000    -0.651287   
O96      O      0.416620000000     0.043980000000     0.539000000000    -0.654548   
O97      O      0.375140000000     0.302190000000     0.963350000000    -0.367235   
O98      O      0.373660000000     0.653310000000     0.985490000000    -0.376686   
O99      O      0.296740000000     0.480570000000     0.072880000000    -0.377571   
O100     O      0.301640000000     0.487170000000     0.869880000000    -0.375934   
O101     O      0.378630000000     0.484530000000     0.796250000000    -0.372703   
O102     O      0.369940000000     0.480110000000     0.150360000000    -0.374958   
O103     O      0.297990000000     0.578590000000     0.979980000000    -0.375269   
O104     O      0.299290000000     0.376370000000     0.963000000000    -0.380837   
O105     O      0.414050000000     0.542880000000     0.912880000000    -0.506267   
O106     O      0.409870000000     0.412170000000     0.036720000000    -0.506884   
O107     O      0.411590000000     0.538470000000     0.038570000000    -0.662414   
O108     O      0.414880000000     0.416970000000     0.909560000000    -0.659054   
O109     O      0.576040000000     0.655490000000     0.980520000000    -0.374073   
O110     O      0.577960000000     0.302570000000     0.977340000000    -0.368074   
O111     O      0.468060000000     0.574830000000     0.155740000000    -0.362933   
O112     O      0.472160000000     0.584250000000     0.801810000000    -0.376816   
O113     O      0.478230000000     0.380820000000     0.797050000000    -0.378869   
O114     O      0.468750000000     0.370610000000     0.150150000000    -0.37051    
O115     O      0.648870000000     0.481830000000     0.084290000000    -0.373461   
O116     O      0.655200000000     0.482610000000     0.879330000000    -0.376918   
O117     O      0.570890000000     0.478480000000     0.156290000000    -0.371108   
O118     O      0.582060000000     0.485430000000     0.801740000000    -0.379111   
O119     O      0.471730000000     0.652140000000     0.082910000000    -0.36965    
O120     O      0.471940000000     0.297550000000     0.072500000000    -0.369097   
O121     O      0.478840000000     0.303780000000     0.870840000000    -0.370612   
O122     O      0.468960000000     0.657320000000     0.879440000000    -0.374687   
O123     O      0.652440000000     0.581990000000     0.981750000000    -0.373541   
O124     O      0.653380000000     0.377130000000     0.981820000000    -0.375371   
O125     O      0.541350000000     0.417210000000     0.913080000000    -0.505543   
O126     O      0.536920000000     0.539950000000     0.043350000000    -0.505438   
O127     O      0.537780000000     0.413880000000     0.039790000000    -0.656751   
O128     O      0.540430000000     0.543510000000     0.916100000000    -0.653666   
Zr1      Zr     0.977870000000     0.987230000000     0.104430000000     1.42976    
Zr2      Zr     0.977130000000     0.853850000000     0.987540000000     1.42754    
Zr3      Zr     0.976390000000     0.105350000000     0.970190000000     1.42217    
Zr4      Zr     0.851400000000     0.979370000000     0.979570000000     1.42664    
Zr5      Zr     0.101930000000     0.980390000000     0.977120000000     1.43472    
Zr6      Zr     0.975280000000     0.970640000000     0.852770000000     1.42856    
Zr7      Zr     0.973010000000     0.485190000000     0.353520000000     1.44258    
Zr8      Zr     0.978870000000     0.601940000000     0.485980000000     1.42957    
Zr9      Zr     0.977910000000     0.351430000000     0.470430000000     1.44226    
Zr10     Zr     0.851170000000     0.476960000000     0.482150000000     1.42936    
Zr11     Zr     0.103320000000     0.475010000000     0.475280000000     1.43317    
Zr12     Zr     0.980810000000     0.468630000000     0.604110000000     1.43148    
Zr13     Zr     0.478650000000     0.975570000000     0.351270000000     1.43466    
Zr14     Zr     0.354080000000     0.978690000000     0.477840000000     1.42859    
Zr15     Zr     0.605460000000     0.977850000000     0.476720000000     1.4278     
Zr16     Zr     0.479650000000     0.852480000000     0.480480000000     1.42476    
Zr17     Zr     0.479270000000     0.104200000000     0.472780000000     1.43616    
Zr18     Zr     0.479460000000     0.981740000000     0.602970000000     1.43363    
Zr19     Zr     0.350070000000     0.477750000000     0.972540000000     1.4326     
Zr20     Zr     0.475330000000     0.603550000000     0.979640000000     1.44031    
Zr21     Zr     0.476340000000     0.353080000000     0.973170000000     1.43674    
Zr22     Zr     0.471980000000     0.474310000000     0.101880000000     1.44398    
Zr23     Zr     0.479100000000     0.481620000000     0.850230000000     1.4277     
Zr24     Zr     0.601910000000     0.479290000000     0.980010000000     1.41791    


