data_structure

_audit_creation_method RASPA-1.0
_audit_creation_date 2023-5-19
_audit_author_name 'Poobodin Mano'

_cell_length_a    21.5284
_cell_length_b    21.5587
_cell_length_c    21.5345
_cell_angle_alpha 90
_cell_angle_beta  90
_cell_angle_gamma 90
_cell_volume      9994.69

_symmetry_cell_setting          triclinic
_symmetry_space_group_name_Hall 'P 1'
_symmetry_space_group_name_H-M  'P 1'
_symmetry_Int_Tables_number     1

_symmetry_equiv_pos_as_xyz 'x,y,z'

loop_
_atom_site_label
_atom_site_type_symbol
_atom_site_fract_x
_atom_site_fract_y
_atom_site_fract_z
_atom_site_charge
C1       C      0.972690000000     0.137150000000     0.131990000000     0.399949   
C2       C      0.979830000000     0.819610000000     0.132490000000     0.393291   
C3       C      0.819700000000     0.977780000000     0.136410000000     0.398595   
C4       C      0.137390000000     0.979290000000     0.129660000000     0.399895   
C5       C      0.972210000000     0.819900000000     0.814340000000     0.398993   
C6       C      0.971660000000     0.135890000000     0.814830000000     0.400477   
C7       C      0.816990000000     0.818080000000     0.974330000000     0.394557   
C8       C      0.134100000000     0.819670000000     0.976230000000     0.397832   
C9       C      0.130940000000     0.138460000000     0.961400000000     0.39538    
C10      C      0.813920000000     0.134070000000     0.979430000000     0.399263   
C11      C      0.813860000000     0.973710000000     0.818660000000     0.397878   
C12      C      0.132470000000     0.984400000000     0.814850000000     0.401831   
C13      C      0.973620000000     0.317900000000     0.316560000000     0.396558   
C14      C      0.978780000000     0.634880000000     0.313770000000     0.397035   
C15      C      0.816860000000     0.473800000000     0.314870000000     0.395358   
C16      C      0.134160000000     0.478710000000     0.317630000000     0.394924   
C17      C      0.971880000000     0.635880000000     0.632690000000     0.39525    
C18      C      0.973480000000     0.320180000000     0.633810000000     0.396783   
C19      C      0.815260000000     0.635920000000     0.474580000000     0.399231   
C20      C      0.134290000000     0.634790000000     0.473650000000     0.399766   
C21      C      0.133600000000     0.319000000000     0.478200000000     0.399216   
C22      C      0.815860000000     0.318740000000     0.473770000000     0.395772   
C23      C      0.814420000000     0.482580000000     0.631780000000     0.400434   
C24      C      0.130780000000     0.475200000000     0.635370000000     0.399292   
C25      C      0.634860000000     0.975540000000     0.317500000000     0.395121   
C26      C      0.317760000000     0.976380000000     0.314800000000     0.397185   
C27      C      0.478240000000     0.814360000000     0.319840000000     0.397192   
C28      C      0.472300000000     0.131680000000     0.312210000000     0.398006   
C29      C      0.314680000000     0.982480000000     0.632890000000     0.393197   
C30      C      0.632230000000     0.979120000000     0.634780000000     0.395026   
C31      C      0.315980000000     0.818590000000     0.476530000000     0.396228   
C32      C      0.314690000000     0.134770000000     0.472420000000     0.395413   
C33      C      0.631470000000     0.137620000000     0.476000000000     0.400024   
C34      C      0.633970000000     0.820310000000     0.476450000000     0.395503   
C35      C      0.473330000000     0.821500000000     0.636130000000     0.395857   
C36      C      0.474310000000     0.137830000000     0.630230000000     0.396569   
C37      C      0.314340000000     0.318300000000     0.968390000000     0.39011    
C38      C      0.632000000000     0.317450000000     0.973920000000     0.395647   
C39      C      0.471300000000     0.321540000000     0.811780000000     0.399054   
C40      C      0.473730000000     0.315690000000     0.130320000000     0.393721   
C41      C      0.635660000000     0.633460000000     0.972010000000     0.397443   
C42      C      0.317790000000     0.637360000000     0.978610000000     0.393363   
C43      C      0.630340000000     0.480350000000     0.813260000000     0.395815   
C44      C      0.635800000000     0.469780000000     0.130330000000     0.398028   
C45      C      0.318620000000     0.479630000000     0.136170000000     0.398522   
C46      C      0.314390000000     0.477160000000     0.817600000000     0.394996   
C47      C      0.477040000000     0.637260000000     0.817180000000     0.399763   
C48      C      0.477180000000     0.633080000000     0.135050000000     0.393938   
C49      C      0.475860000000     0.284020000000     0.236540000000     0.0287357  
C50      C      0.468700000000     0.208690000000     0.157990000000     0.015618   
C51      C      0.475160000000     0.237380000000     0.281460000000     0.0280049  
C52      C      0.467390000000     0.161380000000     0.202660000000     0.0670797  
C53      C      0.476100000000     0.739080000000     0.167120000000     0.02872    
C54      C      0.480620000000     0.660310000000     0.242400000000     0.0154533  
C55      C      0.476620000000     0.783790000000     0.213950000000     0.027695   
C56      C      0.481650000000     0.704810000000     0.289940000000     0.0671349  
C57      C      0.469550000000     0.790060000000     0.742560000000     0.0284774  
C58      C      0.482940000000     0.715290000000     0.664210000000     0.0150953  
C59      C      0.471100000000     0.743250000000     0.787430000000     0.0278108  
C60      C      0.485910000000     0.668170000000     0.708700000000     0.0673632  
C61      C      0.475500000000     0.169500000000     0.736250000000     0.0284371  
C62      C      0.469940000000     0.244850000000     0.657510000000     0.0152927  
C63      C      0.474340000000     0.216040000000     0.781070000000     0.0269123  
C64      C      0.468150000000     0.292110000000     0.702130000000     0.0666269  
C65      C      0.784240000000     0.212610000000     0.471820000000     0.0292017  
C66      C      0.708900000000     0.291200000000     0.479140000000     0.0156705  
C67      C      0.737430000000     0.167850000000     0.472780000000     0.0282952  
C68      C      0.661530000000     0.246760000000     0.481030000000     0.0671033  
C69      C      0.740340000000     0.788750000000     0.473920000000     0.0285847  
C70      C      0.661530000000     0.713470000000     0.478910000000     0.0147323  
C71      C      0.785120000000     0.741900000000     0.473510000000     0.0274397  
C72      C      0.705890000000     0.666050000000     0.478850000000     0.0663655  
C73      C      0.208390000000     0.166420000000     0.470290000000     0.0287966  
C74      C      0.287050000000     0.241250000000     0.481380000000     0.0149036  
C75      C      0.163580000000     0.213170000000     0.472360000000     0.0277939  
C76      C      0.242560000000     0.288440000000     0.484840000000     0.0673716  
C77      C      0.209670000000     0.787150000000     0.477640000000     0.029102   
C78      C      0.288380000000     0.711740000000     0.472380000000     0.0158757  
C79      C      0.164760000000     0.740530000000     0.476530000000     0.0280365  
C80      C      0.243790000000     0.664520000000     0.470410000000     0.0672159  
C81      C      0.710780000000     0.477520000000     0.282920000000     0.0285287  
C82      C      0.789100000000     0.462260000000     0.208360000000     0.0154327  
C83      C      0.665970000000     0.476020000000     0.236150000000     0.0274854  
C84      C      0.744390000000     0.459140000000     0.161150000000     0.0676823  
C85      C      0.165980000000     0.476100000000     0.211500000000     0.028005   
C86      C      0.241220000000     0.485230000000     0.290080000000     0.0160004  
C87      C      0.212740000000     0.476680000000     0.166680000000     0.0274981  
C88      C      0.288610000000     0.486710000000     0.245460000000     0.0672551  
C89      C      0.283110000000     0.479280000000     0.711260000000     0.0274577  
C90      C      0.207490000000     0.471490000000     0.789620000000     0.0151804  
C91      C      0.236560000000     0.478460000000     0.666200000000     0.0266877  
C92      C      0.160320000000     0.469870000000     0.744840000000     0.0667248  
C93      C      0.661450000000     0.477770000000     0.706710000000     0.0276726  
C94      C      0.736630000000     0.489950000000     0.784950000000     0.015492   
C95      C      0.708230000000     0.478790000000     0.661730000000     0.0281314  
C96      C      0.783770000000     0.492370000000     0.740350000000     0.0673857  
C97      C      0.710820000000     0.786090000000     0.977920000000     0.0273368  
C98      C      0.789400000000     0.711300000000     0.966600000000     0.0152787  
C99      C      0.666020000000     0.739270000000     0.976980000000     0.0271052  
C100     C      0.744870000000     0.663900000000     0.964760000000     0.0673016  
C101     C      0.738260000000     0.286070000000     0.970780000000     0.0274537  
C102     C      0.660160000000     0.211230000000     0.985300000000     0.0158963  
C103     C      0.783310000000     0.239610000000     0.972850000000     0.0276364  
C104     C      0.705010000000     0.164310000000     0.988770000000     0.0657693  
C105     C      0.286880000000     0.743920000000     0.974730000000     0.0281011  
C106     C      0.211220000000     0.666020000000     0.984930000000     0.0151399  
C107     C      0.240220000000     0.789060000000     0.974230000000     0.0270424  
C108     C      0.164110000000     0.710770000000     0.985500000000     0.0667991  
C109     C      0.211810000000     0.284240000000     0.991330000000     0.0253714  
C110     C      0.277830000000     0.219990000000     0.932090000000     0.0147926  
C111     C      0.165620000000     0.238920000000     0.989040000000     0.0281317  
C112     C      0.229200000000     0.176860000000     0.924540000000     0.0682854  
C113     C      0.738340000000     0.983130000000     0.666500000000     0.028557   
C114     C      0.660140000000     0.968470000000     0.741300000000     0.0144985  
C115     C      0.783300000000     0.981160000000     0.713080000000     0.0270856  
C116     C      0.704970000000     0.964830000000     0.788320000000     0.0677712  
C117     C      0.208810000000     0.973210000000     0.663800000000     0.0280707  
C118     C      0.284030000000     0.003480000000     0.737250000000     0.0164113  
C119     C      0.163350000000     0.974230000000     0.709860000000     0.0276233  
C120     C      0.238410000000     0.006300000000     0.783700000000     0.0652844  
C121     C      0.211810000000     0.979270000000     0.282600000000     0.0291092  
C122     C      0.291020000000     0.975950000000     0.207520000000     0.0160665  
C123     C      0.167330000000     0.980050000000     0.235610000000     0.0279794  
C124     C      0.246820000000     0.976490000000     0.159840000000     0.0672451  
C125     C      0.666810000000     0.974980000000     0.211350000000     0.0288075  
C126     C      0.742110000000     0.978020000000     0.290330000000     0.0151913  
C127     C      0.713720000000     0.975810000000     0.166680000000     0.0276798  
C128     C      0.789690000000     0.979050000000     0.245960000000     0.0669756  
C129     C      0.973490000000     0.288760000000     0.740190000000     0.0290181  
C130     C      0.971190000000     0.213420000000     0.661290000000     0.0152972  
C131     C      0.972840000000     0.241890000000     0.784900000000     0.0278161  
C132     C      0.970110000000     0.166000000000     0.705540000000     0.067595   
C133     C      0.973720000000     0.667210000000     0.739130000000     0.0287161  
C134     C      0.967480000000     0.742600000000     0.660540000000     0.0150424  
C135     C      0.973760000000     0.713950000000     0.784040000000     0.0274817  
C136     C      0.966810000000     0.789890000000     0.705050000000     0.0672099  
C137     C      0.977770000000     0.787810000000     0.238810000000     0.0283879  
C138     C      0.984910000000     0.712680000000     0.160080000000     0.0151932  
C139     C      0.977510000000     0.740900000000     0.283560000000     0.02734    
C140     C      0.985670000000     0.665210000000     0.204530000000     0.0676323  
C141     C      0.976710000000     0.211790000000     0.284880000000     0.0288568  
C142     C      0.966320000000     0.290330000000     0.209850000000     0.0152661  
C143     C      0.976240000000     0.167100000000     0.238010000000     0.0279522  
C144     C      0.964680000000     0.245960000000     0.162470000000     0.0666356  
H1       H      0.888900000000     0.888190000000     0.064860000000     0.21171    
H2       H      0.065100000000     0.068640000000     0.060830000000     0.209761   
H3       H      0.883310000000     0.065200000000     0.886740000000     0.212627   
H4       H      0.063850000000     0.889530000000     0.883540000000     0.212277   
H5       H      0.886120000000     0.565850000000     0.384020000000     0.210695   
H6       H      0.064260000000     0.388060000000     0.386640000000     0.212429   
H7       H      0.884640000000     0.388940000000     0.562870000000     0.211923   
H8       H      0.062310000000     0.566780000000     0.563640000000     0.211952   
H9       H      0.386490000000     0.886510000000     0.386740000000     0.212303   
H10      H      0.563730000000     0.064910000000     0.384870000000     0.212252   
H11      H      0.563060000000     0.890550000000     0.565640000000     0.212074   
H12      H      0.384840000000     0.066950000000     0.561140000000     0.212478   
H13      H      0.561730000000     0.388240000000     0.882730000000     0.212438   
H14      H      0.385790000000     0.386930000000     0.063030000000     0.209986   
H15      H      0.385060000000     0.567220000000     0.888120000000     0.210305   
H16      H      0.565640000000     0.563570000000     0.063120000000     0.211421   
H17      H      0.478300000000     0.252210000000     0.329480000000     0.0351798  
H18      H      0.479110000000     0.331620000000     0.252480000000     0.0349114  
H19      H      0.465580000000     0.195470000000     0.109450000000     0.0422737  
H20      H      0.515170000000     0.059670000000     0.162090000000     0.0374449  
H21      H      0.474630000000     0.831820000000     0.199130000000     0.0362504  
H22      H      0.473950000000     0.755180000000     0.119470000000     0.0358738  
H23      H      0.482660000000     0.611740000000     0.255520000000     0.0419316  
H24      H      0.549830000000     0.668880000000     0.381250000000     0.0375836  
H25      H      0.465400000000     0.757410000000     0.835410000000     0.0356938  
H26      H      0.463320000000     0.837440000000     0.758240000000     0.0356542  
H27      H      0.488980000000     0.702320000000     0.615880000000     0.0417852  
H28      H      0.567680000000     0.586710000000     0.678080000000     0.0410028  
H29      H      0.476450000000     0.201120000000     0.829110000000     0.0360635  
H30      H      0.478220000000     0.121900000000     0.752280000000     0.0357904  
H31      H      0.467650000000     0.258010000000     0.608910000000     0.0419142  
H32      H      0.398520000000     0.382400000000     0.666510000000     0.0377632  
H33      H      0.752100000000     0.119840000000     0.469550000000     0.0367871  
H34      H      0.831880000000     0.196690000000     0.468300000000     0.0363505  
H35      H      0.695720000000     0.339690000000     0.482490000000     0.0414528  
H36      H      0.558740000000     0.287660000000     0.435540000000     0.0362725  
H37      H      0.833250000000     0.756540000000     0.471120000000     0.0355425  
H38      H      0.756330000000     0.836400000000     0.471920000000     0.035386   
H39      H      0.612950000000     0.700270000000     0.481550000000     0.0399744  
H40      H      0.664530000000     0.567220000000     0.425930000000     0.0351569  
H41      H      0.115520000000     0.198800000000     0.467850000000     0.0364779  
H42      H      0.192520000000     0.119010000000     0.464760000000     0.0363236  
H43      H      0.335540000000     0.254190000000     0.486170000000     0.0411727  
H44      H      0.275270000000     0.371820000000     0.563930000000     0.038305   
H45      H      0.116670000000     0.755300000000     0.478760000000     0.0364402  
H46      H      0.193750000000     0.834790000000     0.480370000000     0.0358048  
H47      H      0.336970000000     0.698500000000     0.470000000000     0.0430883  
H48      H      0.283820000000     0.562830000000     0.518950000000     0.0364938  
H49      H      0.618120000000     0.482640000000     0.250410000000     0.0353222  
H50      H      0.695020000000     0.484690000000     0.330200000000     0.0337163  
H51      H      0.837400000000     0.455350000000     0.195670000000     0.0426672  
H52      H      0.773000000000     0.375150000000     0.081320000000     0.0419567  
H53      H      0.198020000000     0.472590000000     0.118700000000     0.0355194  
H54      H      0.118390000000     0.471860000000     0.195580000000     0.0343314  
H55      H      0.254300000000     0.489460000000     0.338570000000     0.0440708  
H56      H      0.391810000000     0.442880000000     0.287060000000     0.0365095  
H57      H      0.251450000000     0.481910000000     0.618220000000     0.0334616  
H58      H      0.330800000000     0.483020000000     0.695500000000     0.0348121  
H59      H      0.194160000000     0.468030000000     0.838100000000     0.0417957  
H60      H      0.057730000000     0.516260000000     0.785360000000     0.0362058  
H61      H      0.693820000000     0.473480000000     0.613780000000     0.0369093  
H62      H      0.613910000000     0.471990000000     0.691120000000     0.0359283  
H63      H      0.749740000000     0.495570000000     0.833290000000     0.0434862  
H64      H      0.889120000000     0.454940000000     0.783140000000     0.0359783  
H65      H      0.618040000000     0.753770000000     0.981800000000     0.0355207  
H66      H      0.694890000000     0.833520000000     0.983160000000     0.0339394  
H67      H      0.837880000000     0.698370000000     0.961610000000     0.0418937  
H68      H      0.788030000000     0.561070000000     0.007090000000     0.0409136  
H69      H      0.831160000000     0.254130000000     0.966950000000     0.0361818  
H70      H      0.753870000000     0.333370000000     0.963780000000     0.0344375  
H71      H      0.611830000000     0.198310000000     0.991580000000     0.0413407  
H72      H      0.661880000000     0.058530000000     0.954230000000     0.0380233  
H73      H      0.254950000000     0.836900000000     0.969310000000     0.0348304  
H74      H      0.334600000000     0.759410000000     0.970470000000     0.0347812  
H75      H      0.197800000000     0.617760000000     0.990040000000     0.0413252  
H76      H      0.060970000000     0.668210000000     0.942260000000     0.0360207  
H77      H      0.122940000000     0.247630000000     0.014380000000     0.0339634  
H78      H      0.202310000000     0.326330000000     0.017240000000     0.035111   
H79      H      0.320140000000     0.213380000000     0.905480000000     0.0405936  
H80      H      0.246840000000     0.165810000000     0.803650000000     0.036948   
H81      H      0.831150000000     0.987370000000     0.698630000000     0.0357104  
H82      H      0.754010000000     0.990190000000     0.619170000000     0.0357514  
H83      H      0.611820000000     0.962050000000     0.754150000000     0.0412248  
H84      H      0.675700000000     0.881550000000     0.868690000000     0.0406747  
H85      H      0.116590000000     0.961210000000     0.696370000000     0.035164   
H86      H      0.194730000000     0.959970000000     0.617310000000     0.0360035  
H87      H      0.330940000000     0.017570000000     0.749110000000     0.038401   
H88      H      0.323170000000     0.037640000000     0.865850000000     0.0296025  
H89      H      0.119170000000     0.981920000000     0.250240000000     0.0364161  
H90      H      0.195530000000     0.980430000000     0.330240000000     0.0357231  
H91      H      0.339700000000     0.974130000000     0.194520000000     0.0424493  
H92      H      0.282940000000     0.911710000000     0.066150000000     0.0393802  
H93      H      0.698960000000     0.974770000000     0.118560000000     0.0372071  
H94      H      0.619130000000     0.973520000000     0.195200000000     0.0344824  
H95      H      0.755250000000     0.979080000000     0.338980000000     0.041144   
H96      H      0.888200000000     0.923780000000     0.285080000000     0.0360904  
H97      H      0.973770000000     0.256510000000     0.833070000000     0.0366165  
H98      H      0.974760000000     0.336440000000     0.756190000000     0.0355596  
H99      H      0.970230000000     0.200160000000     0.612670000000     0.0418375  
H100     H      0.025070000000     0.067250000000     0.666430000000     0.0420465  
H101     H      0.976660000000     0.699250000000     0.832120000000     0.0347052  
H102     H      0.976460000000     0.619550000000     0.755000000000     0.0346219  
H103     H      0.964390000000     0.755870000000     0.612010000000     0.0412718  
H104     H      0.896910000000     0.880650000000     0.670830000000     0.0401845  
H105     H      0.974050000000     0.755510000000     0.331610000000     0.0355193  
H106     H      0.974680000000     0.835400000000     0.254800000000     0.0337359  
H107     H      0.988490000000     0.699590000000     0.111550000000     0.0432553  
H108     H      0.057990000000     0.576440000000     0.170760000000     0.0415339  
H109     H      0.980800000000     0.119150000000     0.252480000000     0.0371623  
H110     H      0.981380000000     0.195920000000     0.332430000000     0.0354228  
H111     H      0.961420000000     0.338730000000     0.196860000000     0.0414536  
H112     H      0.006980000000     0.288610000000     0.059060000000     0.0370206  
N1       N      0.472920000000     0.269780000000     0.174730000000    -0.172308   
N2       N      0.471440000000     0.175740000000     0.265410000000    -0.178422   
N3       N      0.477850000000     0.677260000000     0.181210000000    -0.172147   
N4       N      0.479000000000     0.767590000000     0.275690000000    -0.17833    
N5       N      0.474820000000     0.776010000000     0.680870000000    -0.172838   
N6       N      0.478300000000     0.681970000000     0.771170000000    -0.179241   
N7       N      0.473530000000     0.183810000000     0.674430000000    -0.173049   
N8       N      0.471070000000     0.277650000000     0.764930000000    -0.179219   
N9       N      0.770010000000     0.274340000000     0.474630000000    -0.172781   
N10      N      0.675780000000     0.184100000000     0.476790000000    -0.178945   
N11      N      0.678500000000     0.774560000000     0.476380000000    -0.172875   
N12      N      0.768760000000     0.680250000000     0.475660000000    -0.178832   
N13      N      0.270190000000     0.180480000000     0.474210000000    -0.172788   
N14      N      0.179890000000     0.274520000000     0.478820000000    -0.179131   
N15      N      0.271520000000     0.772810000000     0.475820000000    -0.172807   
N16      N      0.180950000000     0.678920000000     0.473350000000    -0.178912   
N17      N      0.772460000000     0.471520000000     0.269010000000    -0.172596   
N18      N      0.682070000000     0.467950000000     0.174870000000    -0.178964   
N19      N      0.180140000000     0.479850000000     0.273280000000    -0.172331   
N20      N      0.274390000000     0.481210000000     0.182820000000    -0.178608   
N21      N      0.268630000000     0.476170000000     0.773030000000    -0.172655   
N22      N      0.174860000000     0.474290000000     0.682130000000    -0.179159   
N23      N      0.675740000000     0.482470000000     0.768400000000    -0.172624   
N24      N      0.769750000000     0.484890000000     0.677880000000    -0.179057   
N25      N      0.772590000000     0.772160000000     0.973170000000    -0.172645   
N26      N      0.682210000000     0.677810000000     0.971060000000    -0.178467   
N27      N      0.676600000000     0.271860000000     0.976260000000    -0.172984   
N28      N      0.767420000000     0.178330000000     0.980730000000    -0.178588   
N29      N      0.272360000000     0.682300000000     0.979380000000    -0.172255   
N30      N      0.178510000000     0.773250000000     0.978760000000    -0.178549   
N31      N      0.268600000000     0.273910000000     0.964790000000    -0.170917   
N32      N      0.175120000000     0.184300000000     0.957880000000    -0.179434   
N33      N      0.676680000000     0.977420000000     0.680600000000    -0.172694   
N34      N      0.767360000000     0.972870000000     0.774360000000    -0.179164   
N35      N      0.269440000000     0.985980000000     0.677810000000    -0.173277   
N36      N      0.178000000000     0.988560000000     0.770180000000    -0.180249   
N37      N      0.273700000000     0.977200000000     0.268640000000    -0.173068   
N38      N      0.183930000000     0.978720000000     0.173940000000    -0.179156   
N39      N      0.680920000000     0.976010000000     0.273230000000    -0.172907   
N40      N      0.775470000000     0.977660000000     0.183080000000    -0.178588   
N41      N      0.972840000000     0.274530000000     0.678350000000    -0.173118   
N42      N      0.971380000000     0.180240000000     0.768420000000    -0.179361   
N43      N      0.971070000000     0.681530000000     0.677320000000    -0.172683   
N44      N      0.970850000000     0.775590000000     0.767830000000    -0.179156   
N45      N      0.980820000000     0.773750000000     0.176970000000    -0.172092   
N46      N      0.980770000000     0.679270000000     0.267270000000    -0.178457   
N47      N      0.972420000000     0.273470000000     0.270790000000    -0.173108   
N48      N      0.971030000000     0.183400000000     0.176480000000    -0.17898    
O1       O      0.973100000000     0.152940000000     0.074300000000    -0.376334   
O2       O      0.978830000000     0.802840000000     0.074720000000    -0.372245   
O3       O      0.877670000000     0.978120000000     0.151470000000    -0.373761   
O4       O      0.080140000000     0.978130000000     0.148290000000    -0.375895   
O5       O      0.152630000000     0.981080000000     0.071820000000    -0.378443   
O6       O      0.800940000000     0.977020000000     0.079200000000    -0.373059   
O7       O      0.979440000000     0.877000000000     0.150500000000    -0.372062   
O8       O      0.974670000000     0.079810000000     0.150140000000    -0.371696   
O9       O      0.039060000000     0.915770000000     0.035380000000    -0.505675   
O10      O      0.912980000000     0.040020000000     0.038080000000    -0.504159   
O11      O      0.914110000000     0.914330000000     0.038590000000    -0.652758   
O12      O      0.038910000000     0.042170000000     0.035840000000    -0.646817   
O13      O      0.973320000000     0.801740000000     0.871810000000    -0.373225   
O14      O      0.971760000000     0.154090000000     0.872220000000    -0.374986   
O15      O      0.798840000000     0.875310000000     0.976600000000    -0.375252   
O16      O      0.152070000000     0.877220000000     0.974930000000    -0.369658   
O17      O      0.149240000000     0.081150000000     0.959630000000    -0.361219   
O18      O      0.798410000000     0.076320000000     0.978750000000    -0.374836   
O19      O      0.871150000000     0.974930000000     0.800030000000    -0.37258    
O20      O      0.074710000000     0.982890000000     0.797480000000    -0.371157   
O21      O      0.798420000000     0.974850000000     0.876550000000    -0.373091   
O22      O      0.149780000000     0.980470000000     0.871900000000    -0.37754    
O23      O      0.874840000000     0.801620000000     0.972970000000    -0.375406   
O24      O      0.871230000000     0.152530000000     0.977330000000    -0.37286    
O25      O      0.073720000000     0.155130000000     0.969570000000    -0.373932   
O26      O      0.076500000000     0.803740000000     0.974550000000    -0.376714   
O27      O      0.972960000000     0.877520000000     0.798710000000    -0.378689   
O28      O      0.972080000000     0.078250000000     0.799210000000    -0.376964   
O29      O      0.035910000000     0.040840000000     0.910720000000    -0.50808    
O30      O      0.911390000000     0.914720000000     0.912190000000    -0.510681   
O31      O      0.910030000000     0.039770000000     0.912210000000    -0.652312   
O32      O      0.038060000000     0.915120000000     0.909810000000    -0.652966   
O33      O      0.974620000000     0.299980000000     0.373950000000    -0.375678   
O34      O      0.977670000000     0.653290000000     0.371140000000    -0.373891   
O35      O      0.874690000000     0.473560000000     0.298290000000    -0.373671   
O36      O      0.076860000000     0.477100000000     0.299330000000    -0.373705   
O37      O      0.150620000000     0.479150000000     0.375490000000    -0.371909   
O38      O      0.798680000000     0.475970000000     0.372180000000    -0.374807   
O39      O      0.977300000000     0.577080000000     0.298320000000    -0.374485   
O40      O      0.973680000000     0.375530000000     0.299710000000    -0.376273   
O41      O      0.037630000000     0.539630000000     0.412140000000    -0.507228   
O42      O      0.912040000000     0.414190000000     0.411530000000    -0.508831   
O43      O      0.911820000000     0.540320000000     0.410430000000    -0.652071   
O44      O      0.038020000000     0.413850000000     0.412250000000    -0.654926   
O45      O      0.972260000000     0.652800000000     0.574940000000    -0.374943   
O46      O      0.973950000000     0.303080000000     0.576210000000    -0.377031   
O47      O      0.799620000000     0.578260000000     0.473940000000    -0.375733   
O48      O      0.149750000000     0.577140000000     0.475530000000    -0.377616   
O49      O      0.149450000000     0.376620000000     0.476980000000    -0.376182   
O50      O      0.799070000000     0.376410000000     0.474170000000    -0.376527   
O51      O      0.871960000000     0.480520000000     0.647980000000    -0.377903   
O52      O      0.072980000000     0.476630000000     0.650590000000    -0.37673    
O53      O      0.796690000000     0.481250000000     0.574220000000    -0.371962   
O54      O      0.149370000000     0.475500000000     0.578040000000    -0.373964   
O55      O      0.872730000000     0.654150000000     0.473930000000    -0.37327    
O56      O      0.873290000000     0.300740000000     0.473290000000    -0.373159   
O57      O      0.076120000000     0.300920000000     0.477410000000    -0.372483   
O58      O      0.076870000000     0.653230000000     0.472930000000    -0.37176    
O59      O      0.972550000000     0.578540000000     0.650570000000    -0.373502   
O60      O      0.973140000000     0.377620000000     0.651490000000    -0.373391   
O61      O      0.036400000000     0.414220000000     0.538230000000    -0.508707   
O62      O      0.911390000000     0.540810000000     0.535800000000    -0.506987   
O63      O      0.910850000000     0.414370000000     0.536880000000    -0.654491   
O64      O      0.036510000000     0.541080000000     0.537500000000    -0.65304    
O65      O      0.651300000000     0.977140000000     0.375330000000    -0.376104   
O66      O      0.299230000000     0.977100000000     0.372040000000    -0.37389    
O67      O      0.478060000000     0.871530000000     0.301000000000    -0.374135   
O68      O      0.474430000000     0.073810000000     0.297200000000    -0.373249   
O69      O      0.471880000000     0.150480000000     0.369460000000    -0.373702   
O70      O      0.476880000000     0.799470000000     0.377820000000    -0.373997   
O71      O      0.375600000000     0.974840000000     0.298470000000    -0.375395   
O72      O      0.577550000000     0.974090000000     0.299200000000    -0.374916   
O73      O      0.411800000000     0.037650000000     0.410010000000    -0.505477   
O74      O      0.538840000000     0.913670000000     0.414080000000    -0.509099   
O75      O      0.411900000000     0.913040000000     0.412430000000    -0.655418   
O76      O      0.537970000000     0.039130000000     0.410970000000    -0.653666   
O77      O      0.297480000000     0.978030000000     0.575360000000    -0.372636   
O78      O      0.650460000000     0.980170000000     0.577490000000    -0.375088   
O79      O      0.373820000000     0.802010000000     0.477070000000    -0.374361   
O80      O      0.372390000000     0.151650000000     0.472360000000    -0.377179   
O81      O      0.573690000000     0.153000000000     0.473320000000    -0.377123   
O82      O      0.576250000000     0.803440000000     0.477100000000    -0.375024   
O83      O      0.471350000000     0.879010000000     0.653500000000    -0.373746   
O84      O      0.475180000000     0.080790000000     0.648900000000    -0.37432    
O85      O      0.474950000000     0.804210000000     0.578610000000    -0.378068   
O86      O      0.473450000000     0.153970000000     0.572290000000    -0.373151   
O87      O      0.297800000000     0.875810000000     0.475850000000    -0.375908   
O88      O      0.651870000000     0.877690000000     0.476020000000    -0.37305    
O89      O      0.649950000000     0.080370000000     0.477000000000    -0.37317    
O90      O      0.296820000000     0.077390000000     0.472040000000    -0.373176   
O91      O      0.372170000000     0.984220000000     0.650490000000    -0.375874   
O92      O      0.574380000000     0.978490000000     0.651360000000    -0.375169   
O93      O      0.536250000000     0.041450000000     0.537160000000    -0.50473    
O94      O      0.410670000000     0.915180000000     0.538720000000    -0.507678   
O95      O      0.537340000000     0.916120000000     0.539310000000    -0.655536   
O96      O      0.410750000000     0.040470000000     0.535940000000    -0.653777   
O97      O      0.297700000000     0.375610000000     0.976770000000    -0.37172    
O98      O      0.650040000000     0.374700000000     0.971870000000    -0.37557    
O99      O      0.472580000000     0.302610000000     0.868950000000    -0.374025   
O100     O      0.471720000000     0.299310000000     0.072420000000    -0.373887   
O101     O      0.476020000000     0.372890000000     0.148640000000    -0.373409   
O102     O      0.471160000000     0.379390000000     0.796880000000    -0.375678   
O103     O      0.574200000000     0.300670000000     0.974280000000    -0.37437    
O104     O      0.371560000000     0.300540000000     0.963090000000    -0.370099   
O105     O      0.537030000000     0.412030000000     0.034570000000    -0.507454   
O106     O      0.409910000000     0.415650000000     0.911530000000    -0.508849   
O107     O      0.536130000000     0.413690000000     0.909320000000    -0.655274   
O108     O      0.411730000000     0.412820000000     0.037210000000    -0.64985    
O109     O      0.651040000000     0.575640000000     0.972340000000    -0.373503   
O110     O      0.300460000000     0.579740000000     0.979020000000    -0.373691   
O111     O      0.572730000000     0.479350000000     0.795980000000    -0.372542   
O112     O      0.578460000000     0.470610000000     0.148700000000    -0.374936   
O113     O      0.376520000000     0.477260000000     0.151350000000    -0.374877   
O114     O      0.371680000000     0.478590000000     0.799420000000    -0.374483   
O115     O      0.477310000000     0.654880000000     0.874770000000    -0.372732   
O116     O      0.476360000000     0.651620000000     0.077810000000    -0.373059   
O117     O      0.474330000000     0.579830000000     0.800860000000    -0.376308   
O118     O      0.477720000000     0.575170000000     0.151230000000    -0.372899   
O119     O      0.647790000000     0.479440000000     0.870770000000    -0.375102   
O120     O      0.297790000000     0.476520000000     0.875480000000    -0.373974   
O121     O      0.299880000000     0.479530000000     0.078920000000    -0.373686   
O122     O      0.651450000000     0.472280000000     0.072540000000    -0.373339   
O123     O      0.578310000000     0.651930000000     0.973480000000    -0.372614   
O124     O      0.375350000000     0.654820000000     0.977060000000    -0.374107   
O125     O      0.413660000000     0.539060000000     0.038450000000    -0.50322    
O126     O      0.537160000000     0.540170000000     0.911410000000    -0.509009   
O127     O      0.411060000000     0.541020000000     0.913550000000    -0.649823   
O128     O      0.538960000000     0.538560000000     0.037190000000    -0.651591   
S1       S      0.457940000000     0.085410000000     0.172700000000    -0.029491   
S2       S      0.488260000000     0.674470000000     0.366120000000    -0.032981   
S3       S      0.504430000000     0.593630000000     0.679280000000    -0.0318411  
S4       S      0.460320000000     0.368170000000     0.671900000000    -0.0325405  
S5       S      0.585710000000     0.276840000000     0.492160000000    -0.0312816  
S6       S      0.675040000000     0.589990000000     0.484400000000    -0.0330813  
S7       S      0.272460000000     0.363360000000     0.500930000000    -0.0342199  
S8       S      0.274170000000     0.588580000000     0.461570000000    -0.0298094  
S9       S      0.772920000000     0.438460000000     0.086840000000    -0.0346559  
S10      S      0.364370000000     0.499000000000     0.275180000000    -0.0292457  
S11      S      0.084290000000     0.459470000000     0.774700000000    -0.0309338  
S12      S      0.858810000000     0.509240000000     0.769820000000    -0.0298906  
S13      S      0.774810000000     0.588560000000     0.951300000000    -0.033419   
S14      S      0.676140000000     0.089730000000     0.007760000000    -0.0269152  
S15      S      0.088340000000     0.681140000000     0.998250000000    -0.0328703  
S16      S      0.229680000000     0.132410000000     0.855000000000    -0.0261746  
S17      S      0.676270000000     0.944820000000     0.862760000000    -0.0375764  
S18      S      0.260560000000     0.042060000000     0.855160000000    -0.0161632  
S19      S      0.277690000000     0.972590000000     0.083640000000    -0.0311627  
S20      S      0.865960000000     0.982740000000     0.276700000000    -0.0336073  
S21      S      0.966130000000     0.089890000000     0.674530000000    -0.0358246  
S22      S      0.958700000000     0.865880000000     0.674590000000    -0.0364351  
S23      S      0.995790000000     0.589460000000     0.174270000000    -0.0346135  
S24      S      0.951220000000     0.276000000000     0.087030000000    -0.0328497  
Zr1      Zr     0.977840000000     0.978310000000     0.099320000000     1.42369    
Zr2      Zr     0.975610000000     0.853140000000     0.973410000000     1.42786    
Zr3      Zr     0.973340000000     0.102860000000     0.973520000000     1.42745    
Zr4      Zr     0.850130000000     0.976280000000     0.976980000000     1.42993    
Zr5      Zr     0.100160000000     0.978920000000     0.972110000000     1.42828    
Zr6      Zr     0.973320000000     0.977740000000     0.849420000000     1.43157    
Zr7      Zr     0.975400000000     0.476630000000     0.349790000000     1.43164    
Zr8      Zr     0.974510000000     0.603220000000     0.473180000000     1.42226    
Zr9      Zr     0.974500000000     0.351860000000     0.474600000000     1.42841    
Zr10     Zr     0.849470000000     0.477440000000     0.473510000000     1.43263    
Zr11     Zr     0.098810000000     0.477080000000     0.476130000000     1.43696    
Zr12     Zr     0.973130000000     0.477930000000     0.598800000000     1.43489    
Zr13     Zr     0.476130000000     0.974080000000     0.349840000000     1.42964    
Zr14     Zr     0.348720000000     0.976670000000     0.473990000000     1.42671    
Zr15     Zr     0.600050000000     0.978440000000     0.476130000000     1.42766    
Zr16     Zr     0.474790000000     0.853170000000     0.477090000000     1.43509    
Zr17     Zr     0.473520000000     0.101440000000     0.471980000000     1.43378    
Zr18     Zr     0.473380000000     0.979110000000     0.600060000000     1.42863    
Zr19     Zr     0.472830000000     0.351160000000     0.971590000000     1.42466    
Zr20     Zr     0.598980000000     0.475530000000     0.972510000000     1.4332     
Zr21     Zr     0.349130000000     0.477410000000     0.976630000000     1.42097    
Zr22     Zr     0.472880000000     0.478600000000     0.849790000000     1.43841    
Zr23     Zr     0.476550000000     0.474670000000     0.098980000000     1.42973    
Zr24     Zr     0.475910000000     0.602470000000     0.975670000000     1.42274    


