data_structure

_audit_creation_method RASPA-1.0
_audit_creation_date 2023-5-19
_audit_author_name 'Poobodin Mano'

_cell_length_a    27.6361
_cell_length_b    27.6355
_cell_length_c    27.634
_cell_angle_alpha 90
_cell_angle_beta  90
_cell_angle_gamma 90
_cell_volume      21105.1

_symmetry_cell_setting          triclinic
_symmetry_space_group_name_Hall 'P 1'
_symmetry_space_group_name_H-M  'P 1'
_symmetry_Int_Tables_number     1

_symmetry_equiv_pos_as_xyz 'x,y,z'

loop_
_atom_site_label
_atom_site_type_symbol
_atom_site_fract_x
_atom_site_fract_y
_atom_site_fract_z
_atom_site_charge
C1       C      0.989300000000     0.113650000000     0.115130000000     0.397051   
C2       C      0.992050000000     0.866530000000     0.113960000000     0.397658   
C3       C      0.867240000000     0.992050000000     0.114560000000     0.397306   
C4       C      0.114570000000     0.988720000000     0.114360000000     0.397316   
C5       C      0.989150000000     0.867730000000     0.866630000000     0.397217   
C6       C      0.992370000000     0.114780000000     0.867550000000     0.397151   
C7       C      0.866650000000     0.867790000000     0.989880000000     0.396706   
C8       C      0.113880000000     0.866650000000     0.991730000000     0.397089   
C9       C      0.114770000000     0.114130000000     0.990140000000     0.397168   
C10      C      0.867810000000     0.115240000000     0.992030000000     0.397395   
C11      C      0.867080000000     0.990460000000     0.867310000000     0.397167   
C12      C      0.114550000000     0.992030000000     0.867320000000     0.397174   
C13      C      0.989310000000     0.366810000000     0.367520000000     0.39719    
C14      C      0.992440000000     0.613860000000     0.366670000000     0.397398   
C15      C      0.867080000000     0.489600000000     0.367300000000     0.397374   
C16      C      0.114540000000     0.491360000000     0.367310000000     0.397408   
C17      C      0.989860000000     0.614740000000     0.614170000000     0.397231   
C18      C      0.991860000000     0.367670000000     0.614970000000     0.397457   
C19      C      0.867720000000     0.615010000000     0.491720000000     0.39734    
C20      C      0.114760000000     0.614160000000     0.489480000000     0.397288   
C21      C      0.113960000000     0.366700000000     0.492350000000     0.397397   
C22      C      0.866870000000     0.367540000000     0.490000000000     0.39761    
C23      C      0.867070000000     0.492700000000     0.614370000000     0.397374   
C24      C      0.114530000000     0.489590000000     0.614390000000     0.397373   
C25      C      0.614340000000     0.992090000000     0.367100000000     0.397318   
C26      C      0.614560000000     0.990450000000     0.614350000000     0.397213   
C27      C      0.613780000000     0.115260000000     0.489660000000     0.397482   
C28      C      0.614980000000     0.867810000000     0.491740000000     0.396995   
C29      C      0.367090000000     0.991990000000     0.614400000000     0.397115   
C30      C      0.367010000000     0.988730000000     0.367360000000     0.397309   
C31      C      0.489240000000     0.114750000000     0.614170000000     0.397244   
C32      C      0.492500000000     0.867690000000     0.615020000000     0.397303   
C33      C      0.489560000000     0.866570000000     0.367700000000     0.39776    
C34      C      0.492270000000     0.113680000000     0.366590000000     0.397391   
C35      C      0.366820000000     0.114120000000     0.491620000000     0.397371   
C36      C      0.367750000000     0.866630000000     0.489950000000     0.397197   
C37      C      0.367640000000     0.366720000000     0.989400000000     0.397109   
C38      C      0.614730000000     0.367520000000     0.991700000000     0.39751    
C39      C      0.489720000000     0.367630000000     0.866750000000     0.397376   
C40      C      0.492300000000     0.366850000000     0.114200000000     0.397161   
C41      C      0.613910000000     0.614990000000     0.989910000000     0.397055   
C42      C      0.366870000000     0.614170000000     0.992200000000     0.397241   
C43      C      0.614530000000     0.492660000000     0.867300000000     0.397231   
C44      C      0.614550000000     0.489610000000     0.114370000000     0.397318   
C45      C      0.367090000000     0.491390000000     0.114400000000     0.397378   
C46      C      0.367070000000     0.489580000000     0.867310000000     0.397307   
C47      C      0.491770000000     0.614700000000     0.867480000000     0.397406   
C48      C      0.489210000000     0.613900000000     0.114980000000     0.397409   
C49      C      0.481880000000     0.307400000000     0.232480000000    -0.0851521  
C50      C      0.493400000000     0.259260000000     0.221120000000     0.0337775  
C51      C      0.504680000000     0.248310000000     0.172820000000    -0.0850032  
C52      C      0.503560000000     0.284480000000     0.137540000000     0.0690064  
C53      C      0.482410000000     0.342920000000     0.196540000000     0.0684818  
C54      C      0.493510000000     0.220870000000     0.259280000000     0.0337982  
C55      C      0.504540000000     0.232000000000     0.307590000000    -0.0850593  
C56      C      0.503420000000     0.195940000000     0.342960000000     0.0691292  
C57      C      0.482950000000     0.137190000000     0.284030000000     0.0687338  
C58      C      0.482410000000     0.172610000000     0.247970000000    -0.0849607  
C59      C      0.499550000000     0.807380000000     0.249300000000    -0.0854011  
C60      C      0.488310000000     0.759180000000     0.260660000000     0.03379    
C61      C      0.477430000000     0.748060000000     0.309010000000    -0.0850786  
C62      C      0.478640000000     0.784160000000     0.344360000000     0.0689955  
C63      C      0.499090000000     0.842810000000     0.285300000000     0.0685777  
C64      C      0.488140000000     0.720890000000     0.222430000000     0.0337605  
C65      C      0.476660000000     0.732050000000     0.174230000000    -0.0851194  
C66      C      0.477760000000     0.696060000000     0.138780000000     0.0690739  
C67      C      0.499100000000     0.637370000000     0.197460000000     0.0685573  
C68      C      0.499680000000     0.672710000000     0.233570000000    -0.0852277  
C69      C      0.504770000000     0.749430000000     0.674120000000    -0.0851194  
C70      C      0.493340000000     0.760550000000     0.722340000000     0.0337457  
C71      C      0.481950000000     0.808750000000     0.733550000000    -0.0852323  
C72      C      0.482630000000     0.844150000000     0.697490000000     0.0684766  
C73      C      0.503800000000     0.785480000000     0.638730000000     0.0690072  
C74      C      0.493090000000     0.722190000000     0.760510000000     0.0337426  
C75      C      0.481720000000     0.674030000000     0.749120000000    -0.0852439  
C76      C      0.482140000000     0.638550000000     0.785090000000     0.0685326  
C77      C      0.502860000000     0.697080000000     0.844160000000     0.0689415  
C78      C      0.504090000000     0.733220000000     0.808850000000    -0.0850632  
C79      C      0.499690000000     0.308720000000     0.748150000000    -0.0851551  
C80      C      0.488390000000     0.260510000000     0.759410000000     0.0337479  
C81      C      0.477300000000     0.249360000000     0.807700000000    -0.085102   
C82      C      0.478500000000     0.285390000000     0.843110000000     0.0690359  
C83      C      0.499250000000     0.344100000000     0.784240000000     0.0684674  
C84      C      0.488370000000     0.222180000000     0.721210000000     0.0337424  
C85      C      0.477050000000     0.233220000000     0.672940000000    -0.0850221  
C86      C      0.478080000000     0.197100000000     0.637600000000     0.0689532  
C87      C      0.499210000000     0.138560000000     0.696520000000     0.0685275  
C88      C      0.499830000000     0.174020000000     0.732500000000    -0.0851939  
C89      C      0.732080000000     0.174270000000     0.477680000000    -0.0853013  
C90      C      0.720930000000     0.222530000000     0.488850000000     0.0337794  
C91      C      0.672680000000     0.233810000000     0.499990000000    -0.0851858  
C92      C      0.637270000000     0.197760000000     0.499330000000     0.0684995  
C93      C      0.696030000000     0.138900000000     0.478680000000     0.0691019  
C94      C      0.759300000000     0.260680000000     0.489030000000     0.0337332  
C95      C      0.807420000000     0.249320000000     0.500600000000    -0.0852795  
C96      C      0.842930000000     0.285240000000     0.500050000000     0.0685962  
C97      C      0.784500000000     0.344240000000     0.478840000000     0.0689374  
C98      C      0.748340000000     0.308960000000     0.477730000000    -0.0850284  
C99      C      0.808910000000     0.733610000000     0.481090000000    -0.0851835  
C100     C      0.760710000000     0.722500000000     0.492610000000     0.0337309  
C101     C      0.749550000000     0.674290000000     0.504070000000    -0.08505    
C102     C      0.785530000000     0.638830000000     0.503000000000     0.0689853  
C103     C      0.844250000000     0.697490000000     0.481700000000     0.0684502  
C104     C      0.722420000000     0.760760000000     0.492490000000     0.0337496  
C105     C      0.733570000000     0.809110000000     0.503330000000    -0.0849341  
C106     C      0.697450000000     0.844470000000     0.502260000000     0.0690193  
C107     C      0.638740000000     0.785420000000     0.482010000000     0.0684814  
C108     C      0.674180000000     0.749420000000     0.481410000000    -0.085136   
C109     C      0.232240000000     0.307580000000     0.504320000000    -0.0850627  
C110     C      0.221050000000     0.259330000000     0.493110000000     0.0337693  
C111     C      0.172800000000     0.248120000000     0.481950000000    -0.0851475  
C112     C      0.137430000000     0.284200000000     0.482630000000     0.0685213  
C113     C      0.196220000000     0.343000000000     0.503360000000     0.0690186  
C114     C      0.259380000000     0.221130000000     0.492860000000     0.0337706  
C115     C      0.307500000000     0.232440000000     0.481270000000    -0.0851937  
C116     C      0.342960000000     0.196460000000     0.481700000000     0.0685191  
C117     C      0.284480000000     0.137500000000     0.502840000000     0.0690656  
C118     C      0.248360000000     0.172830000000     0.504060000000    -0.0850245  
C119     C      0.233320000000     0.672820000000     0.477650000000    -0.0850214  
C120     C      0.222260000000     0.721130000000     0.488740000000     0.033747   
C121     C      0.174050000000     0.732480000000     0.499960000000    -0.085234   
C122     C      0.138580000000     0.696520000000     0.499300000000     0.0685754  
C123     C      0.197170000000     0.637510000000     0.478640000000     0.0689842  
C124     C      0.260610000000     0.759310000000     0.488750000000     0.0337395  
C125     C      0.308790000000     0.748080000000     0.500240000000    -0.0851552  
C126     C      0.344190000000     0.784150000000     0.499750000000     0.0684347  
C127     C      0.285550000000     0.842950000000     0.478580000000     0.0690322  
C128     C      0.249520000000     0.807550000000     0.477420000000    -0.0850735  
C129     C      0.808180000000     0.477320000000     0.248920000000    -0.0850708  
C130     C      0.759910000000     0.488580000000     0.260000000000     0.0337526  
C131     C      0.748640000000     0.500020000000     0.308180000000    -0.0852374  
C132     C      0.784670000000     0.499460000000     0.343610000000     0.068542   
C133     C      0.843540000000     0.478400000000     0.285000000000     0.0689558  
C134     C      0.721730000000     0.488580000000     0.221660000000     0.0337291  
C135     C      0.733000000000     0.500000000000     0.173480000000    -0.0851412  
C136     C      0.696970000000     0.499450000000     0.138050000000     0.0684906  
C137     C      0.638100000000     0.478410000000     0.196670000000     0.0689903  
C138     C      0.673460000000     0.477330000000     0.232750000000    -0.0850615  
C139     C      0.248660000000     0.480810000000     0.173490000000    -0.0851574  
C140     C      0.259920000000     0.492150000000     0.221700000000     0.033751   
C141     C      0.308190000000     0.503380000000     0.232810000000    -0.0850482  
C142     C      0.343560000000     0.502350000000     0.196730000000     0.0689998  
C143     C      0.284690000000     0.481430000000     0.138070000000     0.0685748  
C144     C      0.221720000000     0.492150000000     0.260020000000     0.0337785  
C145     C      0.173450000000     0.503360000000     0.248910000000    -0.0849978  
C146     C      0.138080000000     0.502320000000     0.284980000000     0.0690188  
C147     C      0.196950000000     0.481410000000     0.343640000000     0.0685702  
C148     C      0.232980000000     0.480800000000     0.308220000000    -0.0852175  
C149     C      0.232980000000     0.499870000000     0.673480000000    -0.085187   
C150     C      0.221700000000     0.488550000000     0.721690000000     0.0337323  
C151     C      0.173410000000     0.477400000000     0.732790000000    -0.0850243  
C152     C      0.138040000000     0.478520000000     0.696710000000     0.0690326  
C153     C      0.196960000000     0.499310000000     0.638060000000     0.0685324  
C154     C      0.259890000000     0.488550000000     0.760030000000     0.0337621  
C155     C      0.308180000000     0.477380000000     0.748920000000    -0.0850817  
C156     C      0.343550000000     0.478490000000     0.785000000000     0.0690012  
C157     C      0.284640000000     0.499310000000     0.843660000000     0.0685011  
C158     C      0.248610000000     0.499870000000     0.808230000000    -0.0852063  
C159     C      0.808170000000     0.505140000000     0.732740000000    -0.0850705  
C160     C      0.759890000000     0.493960000000     0.721660000000     0.0337154  
C161     C      0.748600000000     0.482590000000     0.673460000000    -0.0852013  
C162     C      0.784630000000     0.483090000000     0.638040000000     0.0684924  
C163     C      0.843540000000     0.503990000000     0.696660000000     0.0689805  
C164     C      0.721700000000     0.493950000000     0.760010000000     0.0337376  
C165     C      0.732990000000     0.482570000000     0.808200000000    -0.0852346  
C166     C      0.696970000000     0.483060000000     0.843620000000     0.06852    
C167     C      0.638050000000     0.503950000000     0.785010000000     0.0689918  
C168     C      0.673410000000     0.505120000000     0.748920000000    -0.0851006  
C169     C      0.807460000000     0.749390000000     0.000160000000    -0.0826821  
C170     C      0.759220000000     0.760730000000     0.989070000000     0.032614   
C171     C      0.748080000000     0.809090000000     0.978230000000    -0.0845592  
C172     C      0.784190000000     0.844440000000     0.979310000000     0.0686417  
C173     C      0.842900000000     0.785400000000     0.999570000000     0.0661856  
C174     C      0.720930000000     0.722470000000     0.988960000000     0.0326045  
C175     C      0.732090000000     0.674260000000     0.977520000000    -0.0846819  
C176     C      0.696110000000     0.638800000000     0.978600000000     0.0685645  
C177     C      0.637390000000     0.697470000000     0.999890000000     0.0661038  
C178     C      0.672730000000     0.733590000000     0.000480000000    -0.0826705  
C179     C      0.749510000000     0.174240000000     0.004020000000    -0.084447   
C180     C      0.760660000000     0.222510000000     0.992860000000     0.0330709  
C181     C      0.808910000000     0.233790000000     0.981720000000    -0.0851849  
C182     C      0.844320000000     0.197740000000     0.982380000000     0.0683146  
C183     C      0.785560000000     0.138870000000     0.003020000000     0.0696245  
C184     C      0.722290000000     0.260650000000     0.992690000000     0.0330294  
C185     C      0.674160000000     0.249290000000     0.981120000000    -0.0852245  
C186     C      0.638660000000     0.285220000000     0.981670000000     0.0684085  
C187     C      0.697090000000     0.344210000000     0.002880000000     0.0695144  
C188     C      0.733250000000     0.308930000000     0.003990000000    -0.0842528  
C189     C      0.232120000000     0.807580000000     0.004250000000    -0.0842903  
C190     C      0.221030000000     0.759330000000     0.992920000000     0.0330274  
C191     C      0.172850000000     0.748110000000     0.981420000000    -0.0850461  
C192     C      0.137450000000     0.784180000000     0.981920000000     0.0682821  
C193     C      0.196090000000     0.842970000000     0.003090000000     0.0696085  
C194     C      0.259380000000     0.721150000000     0.992920000000     0.0330287  
C195     C      0.307590000000     0.732500000000     0.981710000000    -0.0851542  
C196     C      0.343060000000     0.696540000000     0.982370000000     0.0683233  
C197     C      0.284460000000     0.637530000000     0.003040000000     0.0694603  
C198     C      0.248310000000     0.672840000000     0.004030000000    -0.084213   
C199     C      0.308790000000     0.248150000000     0.999860000000    -0.0860687  
C200     C      0.260530000000     0.259360000000     0.988710000000     0.0341769  
C201     C      0.249340000000     0.307610000000     0.977480000000    -0.0853402  
C202     C      0.285370000000     0.343030000000     0.978430000000     0.0689911  
C203     C      0.344160000000     0.284230000000     0.999160000000     0.0678862  
C204     C      0.222210000000     0.221150000000     0.988950000000     0.0326843  
C205     C      0.233230000000     0.172860000000     0.977740000000    -0.0847571  
C206     C      0.197120000000     0.137520000000     0.978950000000     0.0687428  
C207     C      0.138630000000     0.196470000000     0.000090000000     0.0690668  
C208     C      0.174080000000     0.232460000000     0.000530000000    -0.0841804  
C209     C      0.808190000000     0.978490000000     0.748890000000    -0.085032   
C210     C      0.759930000000     0.989730000000     0.759990000000     0.0330772  
C211     C      0.748660000000     0.001080000000     0.808190000000    -0.0844225  
C212     C      0.784680000000     0.000460000000     0.843620000000     0.0689837  
C213     C      0.843550000000     0.979500000000     0.784980000000     0.0687722  
C214     C      0.721730000000     0.989720000000     0.721660000000     0.0330271  
C215     C      0.732990000000     0.001090000000     0.673460000000    -0.0843738  
C216     C      0.696960000000     0.000450000000     0.638030000000     0.0689953  
C217     C      0.638100000000     0.979470000000     0.696670000000     0.0687612  
C218     C      0.673470000000     0.978460000000     0.732760000000    -0.084984   
C219     C      0.248650000000     0.981600000000     0.673520000000    -0.0851141  
C220     C      0.259920000000     0.993020000000     0.721700000000     0.0330697  
C221     C      0.308190000000     0.004270000000     0.732790000000    -0.0843221  
C222     C      0.343550000000     0.003180000000     0.696700000000     0.0695401  
C223     C      0.284680000000     0.982140000000     0.638090000000     0.0682656  
C224     C      0.221730000000     0.993030000000     0.760030000000     0.0330591  
C225     C      0.173470000000     0.004300000000     0.748940000000    -0.0842413  
C226     C      0.138100000000     0.003220000000     0.785030000000     0.0695384  
C227     C      0.196970000000     0.982170000000     0.843640000000     0.0682847  
C228     C      0.233000000000     0.981620000000     0.808220000000    -0.0851576  
C229     C      0.233010000000     0.998830000000     0.173510000000    -0.0858357  
C230     C      0.221710000000     0.987400000000     0.221680000000     0.0338032  
C231     C      0.173430000000     0.976180000000     0.232740000000    -0.085109   
C232     C      0.138080000000     0.977340000000     0.196640000000     0.068939   
C233     C      0.197010000000     0.998350000000     0.138070000000     0.0678912  
C234     C      0.259860000000     0.987400000000     0.260050000000     0.0338202  
C235     C      0.308140000000     0.976190000000     0.248990000000    -0.0851533  
C236     C      0.343490000000     0.977350000000     0.285080000000     0.0689487  
C237     C      0.284570000000     0.998330000000     0.343660000000     0.0678394  
C238     C      0.248560000000     0.998810000000     0.308220000000    -0.0858627  
C239     C      0.732710000000     0.004270000000     0.308210000000    -0.0843389  
C240     C      0.721610000000     0.993130000000     0.259920000000     0.0332028  
C241     C      0.673400000000     0.981840000000     0.248630000000    -0.0851812  
C242     C      0.637970000000     0.982430000000     0.284650000000     0.0686503  
C243     C      0.696640000000     0.003160000000     0.343580000000     0.0697207  
C244     C      0.759960000000     0.993110000000     0.221730000000     0.0331939  
C245     C      0.748860000000     0.004240000000     0.173430000000    -0.0843581  
C246     C      0.784940000000     0.003120000000     0.138070000000     0.0698332  
C247     C      0.843600000000     0.982380000000     0.197010000000     0.0685777  
C248     C      0.808170000000     0.981820000000     0.233030000000    -0.0851534  
C249     C      0.981770000000     0.174070000000     0.749240000000    -0.0851465  
C250     C      0.993220000000     0.222230000000     0.760530000000     0.0330733  
C251     C      0.004530000000     0.233270000000     0.808800000000    -0.0842439  
C252     C      0.003500000000     0.197140000000     0.844140000000     0.0694591  
C253     C      0.982400000000     0.138610000000     0.785210000000     0.068367   
C254     C      0.993200000000     0.260560000000     0.722330000000     0.0330733  
C255     C      0.004300000000     0.249410000000     0.674040000000    -0.0843384  
C256     C      0.003090000000     0.285430000000     0.638630000000     0.0696043  
C257     C      0.982340000000     0.344150000000     0.697490000000     0.0682412  
C258     C      0.981890000000     0.308770000000     0.733580000000    -0.0850905  
C259     C      0.976870000000     0.749480000000     0.807520000000    -0.0852082  
C260     C      0.988320000000     0.760600000000     0.759300000000     0.033779   
C261     C      0.999710000000     0.808800000000     0.748100000000    -0.0858609  
C262     C      0.999030000000     0.844200000000     0.784160000000     0.0677676  
C263     C      0.977850000000     0.785520000000     0.842920000000     0.0689411  
C264     C      0.988570000000     0.722240000000     0.721130000000     0.0337595  
C265     C      0.999930000000     0.674070000000     0.732520000000    -0.0858934  
C266     C      0.999500000000     0.638590000000     0.696560000000     0.0678679  
C267     C      0.978800000000     0.697120000000     0.637480000000     0.0688603  
C268     C      0.977580000000     0.733270000000     0.672790000000    -0.0851042  
C269     C      0.005000000000     0.732000000000     0.307410000000    -0.0842917  
C270     C      0.993510000000     0.720840000000     0.259210000000     0.0330592  
C271     C      0.981980000000     0.672650000000     0.248080000000    -0.0851793  
C272     C      0.982570000000     0.637320000000     0.284190000000     0.0683585  
C273     C      0.003910000000     0.696020000000     0.342870000000     0.069524   
C274     C      0.993320000000     0.759130000000     0.220990000000     0.0331015  
C275     C      0.982080000000     0.807320000000     0.232340000000    -0.0853101  
C276     C      0.982520000000     0.842760000000     0.196350000000     0.0683978  
C277     C      0.002990000000     0.784130000000     0.137280000000     0.069536   
C278     C      0.004200000000     0.748020000000     0.172630000000    -0.0842204  
C279     C      0.976900000000     0.248270000000     0.308920000000    -0.0850953  
C280     C      0.988170000000     0.259210000000     0.260620000000     0.0338227  
C281     C      0.999710000000     0.307350000000     0.249250000000    -0.0858571  
C282     C      0.999190000000     0.342870000000     0.285180000000     0.0678025  
C283     C      0.978030000000     0.284450000000     0.344200000000     0.0689234  
C284     C      0.988040000000     0.220820000000     0.222460000000     0.0338246  
C285     C      0.999130000000     0.172560000000     0.233770000000    -0.085607   
C286     C      0.998600000000     0.137140000000     0.197700000000     0.0680527  
C287     C      0.978130000000     0.195900000000     0.138780000000     0.0690249  
C288     C      0.977010000000     0.231950000000     0.174160000000    -0.0850503  
H1       H      0.921140000000     0.921550000000     0.059780000000     0.210283   
H2       H      0.060240000000     0.059530000000     0.060490000000     0.210038   
H3       H      0.921820000000     0.060710000000     0.921720000000     0.210617   
H4       H      0.059860000000     0.921520000000     0.921300000000     0.210175   
H5       H      0.921750000000     0.560110000000     0.421310000000     0.210253   
H6       H      0.059920000000     0.421090000000     0.421760000000     0.21014    
H7       H      0.921310000000     0.421940000000     0.560350000000     0.210088   
H8       H      0.060300000000     0.560100000000     0.559950000000     0.210301   
H9       H      0.559800000000     0.060700000000     0.559980000000     0.210396   
H10      H      0.560470000000     0.921570000000     0.421880000000     0.210005   
H11      H      0.421350000000     0.059540000000     0.421230000000     0.20982    
H12      H      0.421780000000     0.921490000000     0.560390000000     0.210218   
H13      H      0.560280000000     0.421910000000     0.921350000000     0.210297   
H14      H      0.421700000000     0.421120000000     0.059950000000     0.210233   
H15      H      0.421320000000     0.560090000000     0.921730000000     0.210142   
H16      H      0.559890000000     0.560120000000     0.060350000000     0.210098   
H17      H      0.515020000000     0.212120000000     0.162040000000     0.0499891  
H18      H      0.512600000000     0.274120000000     0.100790000000     0.0253413  
H19      H      0.473120000000     0.379510000000     0.207250000000     0.0239415  
H20      H      0.471690000000     0.317890000000     0.268800000000     0.0493191  
H21      H      0.514640000000     0.268270000000     0.318330000000     0.049819   
H22      H      0.512210000000     0.206490000000     0.379720000000     0.0251992  
H23      H      0.473940000000     0.100510000000     0.273410000000     0.0242697  
H24      H      0.472510000000     0.161980000000     0.211610000000     0.0495166  
H25      H      0.467350000000     0.711790000000     0.319790000000     0.0497698  
H26      H      0.469900000000     0.773700000000     0.381160000000     0.0251571  
H27      H      0.508140000000     0.879460000000     0.274600000000     0.0235264  
H28      H      0.509440000000     0.817980000000     0.212930000000     0.0491988  
H29      H      0.466240000000     0.768270000000     0.163640000000     0.0498453  
H30      H      0.468600000000     0.706600000000     0.102100000000     0.0252776  
H31      H      0.508450000000     0.600730000000     0.207950000000     0.0239368  
H32      H      0.509950000000     0.662080000000     0.269830000000     0.0493119  
H33      H      0.471730000000     0.819350000000     0.769830000000     0.0492523  
H34      H      0.473390000000     0.880800000000     0.708040000000     0.0238487  
H35      H      0.512910000000     0.774960000000     0.602040000000     0.0251459  
H36      H      0.515080000000     0.713190000000     0.663470000000     0.0497991  
H37      H      0.471760000000     0.663500000000     0.712750000000     0.0493389  
H38      H      0.473000000000     0.601930000000     0.774370000000     0.0239173  
H39      H      0.511690000000     0.707500000000     0.880940000000     0.0251235  
H40      H      0.514290000000     0.769450000000     0.819650000000     0.0497101  
H41      H      0.467070000000     0.213110000000     0.818400000000     0.0498038  
H42      H      0.469630000000     0.274850000000     0.879850000000     0.025141   
H43      H      0.508390000000     0.380760000000     0.773640000000     0.0239262  
H44      H      0.509660000000     0.319350000000     0.711800000000     0.0492871  
H45      H      0.466770000000     0.269450000000     0.662220000000     0.049763   
H46      H      0.469020000000     0.207520000000     0.600870000000     0.0251553  
H47      H      0.508460000000     0.101950000000     0.707170000000     0.024062   
H48      H      0.510030000000     0.163470000000     0.768800000000     0.049359   
H49      H      0.662050000000     0.270150000000     0.509990000000     0.0492911  
H50      H      0.600590000000     0.208340000000     0.508360000000     0.0239085  
H51      H      0.706580000000     0.102170000000     0.469740000000     0.0246216  
H52      H      0.768360000000     0.163570000000     0.467540000000     0.0496142  
H53      H      0.817890000000     0.213000000000     0.510810000000     0.0493132  
H54      H      0.879520000000     0.274550000000     0.509360000000     0.0238411  
H55      H      0.774140000000     0.380980000000     0.469760000000     0.0251895  
H56      H      0.712140000000     0.319730000000     0.467370000000     0.0497424  
H57      H      0.713320000000     0.663700000000     0.514480000000     0.0497798  
H58      H      0.774970000000     0.602160000000     0.512160000000     0.0251815  
H59      H      0.880890000000     0.707970000000     0.472390000000     0.0238671  
H60      H      0.819550000000     0.769860000000     0.470830000000     0.0493267  
H61      H      0.769860000000     0.819900000000     0.513290000000     0.04976    
H62      H      0.707940000000     0.881260000000     0.510980000000     0.0251209  
H63      H      0.602060000000     0.774720000000     0.473090000000     0.0239551  
H64      H      0.663540000000     0.713050000000     0.471550000000     0.0493114  
H65      H      0.162130000000     0.211810000000     0.471900000000     0.0494161  
H66      H      0.100740000000     0.273630000000     0.473580000000     0.0240967  
H67      H      0.206790000000     0.379710000000     0.512300000000     0.0251656  
H68      H      0.268530000000     0.318250000000     0.514450000000     0.0497865  
H69      H      0.318020000000     0.268770000000     0.471130000000     0.0493228  
H70      H      0.379550000000     0.207130000000     0.472390000000     0.023912   
H71      H      0.274080000000     0.100750000000     0.511850000000     0.025307   
H72      H      0.212160000000     0.162090000000     0.514430000000     0.0498718  
H73      H      0.163490000000     0.768820000000     0.509990000000     0.0493773  
H74      H      0.101930000000     0.707220000000     0.508360000000     0.0240414  
H75      H      0.207620000000     0.600740000000     0.469750000000     0.0251569  
H76      H      0.269590000000     0.662040000000     0.467550000000     0.0497503  
H77      H      0.319370000000     0.711780000000     0.510390000000     0.0493081  
H78      H      0.380820000000     0.773590000000     0.509030000000     0.0239332  
H79      H      0.275040000000     0.879650000000     0.469520000000     0.0251755  
H80      H      0.213300000000     0.818220000000     0.467040000000     0.0497934  
H81      H      0.712330000000     0.510140000000     0.318750000000     0.0493452  
H82      H      0.774050000000     0.508690000000     0.380240000000     0.0239257  
H83      H      0.880260000000     0.469370000000     0.274530000000     0.0251438  
H84      H      0.818870000000     0.467040000000     0.212680000000     0.0498017  
H85      H      0.769320000000     0.510120000000     0.162910000000     0.0493466  
H86      H      0.707590000000     0.508670000000     0.101420000000     0.0240677  
H87      H      0.601380000000     0.469400000000     0.207150000000     0.0251733  
H88      H      0.662760000000     0.467060000000     0.268990000000     0.0497936  
H89      H      0.318890000000     0.513600000000     0.269060000000     0.0497992  
H90      H      0.380280000000     0.511350000000     0.207220000000     0.0251896  
H91      H      0.274080000000     0.472280000000     0.101420000000     0.0240722  
H92      H      0.212350000000     0.470690000000     0.162900000000     0.0494233  
H93      H      0.162750000000     0.513590000000     0.212650000000     0.0498733  
H94      H      0.101360000000     0.511320000000     0.274490000000     0.0253421  
H95      H      0.207560000000     0.472270000000     0.380300000000     0.0239204  
H96      H      0.269290000000     0.470700000000     0.318820000000     0.0493331  
H97      H      0.162680000000     0.467200000000     0.769040000000     0.0498039  
H98      H      0.101300000000     0.469590000000     0.707200000000     0.0252892  
H99      H      0.207590000000     0.508440000000     0.601410000000     0.0239287  
H100     H      0.269310000000     0.509920000000     0.662890000000     0.0493105  
H101     H      0.318900000000     0.467160000000     0.712680000000     0.0497931  
H102     H      0.380280000000     0.469560000000     0.774510000000     0.0251682  
H103     H      0.274010000000     0.508450000000     0.880310000000     0.0238755  
H104     H      0.212290000000     0.509930000000     0.818830000000     0.0493181  
H105     H      0.712270000000     0.472530000000     0.662890000000     0.04932    
H106     H      0.773990000000     0.473890000000     0.601410000000     0.0239347  
H107     H      0.880280000000     0.512920000000     0.707140000000     0.0250823  
H108     H      0.818900000000     0.515390000000     0.768980000000     0.0496995  
H109     H      0.769330000000     0.472520000000     0.818770000000     0.0492492  
H110     H      0.707610000000     0.473860000000     0.880260000000     0.0238539  
H111     H      0.601300000000     0.512880000000     0.774530000000     0.0251554  
H112     H      0.662680000000     0.515370000000     0.712690000000     0.0497851  
H113     H      0.711790000000     0.819870000000     0.968260000000     0.049529   
H114     H      0.773700000000     0.881230000000     0.970590000000     0.0251401  
H115     H      0.879570000000     0.774690000000     0.008490000000     0.025018   
H116     H      0.818100000000     0.713020000000     0.010020000000     0.0489827  
H117     H      0.768310000000     0.663660000000     0.967110000000     0.049509   
H118     H      0.706650000000     0.602130000000     0.969450000000     0.0251793  
H119     H      0.600750000000     0.707960000000     0.009210000000     0.0250719  
H120     H      0.662090000000     0.769850000000     0.010730000000     0.0490494  
H121     H      0.819540000000     0.270120000000     0.971720000000     0.0490858  
H122     H      0.881000000000     0.208330000000     0.973350000000     0.0237793  
H123     H      0.775010000000     0.102140000000     0.011940000000     0.0247735  
H124     H      0.713230000000     0.163530000000     0.014150000000     0.0497077  
H125     H      0.663700000000     0.212970000000     0.970910000000     0.0491636  
H126     H      0.602070000000     0.274530000000     0.972360000000     0.0238426  
H127     H      0.707450000000     0.380950000000     0.011960000000     0.0253056  
H128     H      0.769440000000     0.319700000000     0.014350000000     0.0498257  
H129     H      0.162270000000     0.711800000000     0.971270000000     0.0491502  
H130     H      0.100820000000     0.773620000000     0.972630000000     0.0240037  
H131     H      0.206590000000     0.879680000000     0.012160000000     0.0253044  
H132     H      0.268330000000     0.818250000000     0.014630000000     0.0498616  
H133     H      0.318150000000     0.768850000000     0.971670000000     0.0490931  
H134     H      0.379710000000     0.707240000000     0.973310000000     0.0238578  
H135     H      0.274020000000     0.600770000000     0.011930000000     0.0253233  
H136     H      0.212050000000     0.662070000000     0.014120000000     0.0498982  
H137     H      0.213050000000     0.318270000000     0.967360000000     0.0497347  
H138     H      0.274800000000     0.379740000000     0.969480000000     0.025098   
H139     H      0.380850000000     0.273660000000     0.008210000000     0.0247013  
H140     H      0.319450000000     0.211840000000     0.009920000000     0.0501693  
H141     H      0.269430000000     0.162120000000     0.967380000000     0.0496132  
H142     H      0.207530000000     0.100780000000     0.969930000000     0.0252706  
H143     H      0.102030000000     0.207140000000     0.009390000000     0.0242064  
H144     H      0.163570000000     0.268790000000     0.010670000000     0.0494206  
H145     H      0.712350000000     0.011200000000     0.818770000000     0.0493595  
H146     H      0.774070000000     0.009610000000     0.880270000000     0.0240215  
H147     H      0.880270000000     0.970490000000     0.774490000000     0.0250848  
H148     H      0.818900000000     0.968260000000     0.712640000000     0.0495739  
H149     H      0.769300000000     0.011210000000     0.662870000000     0.0493576  
H150     H      0.707570000000     0.009620000000     0.601380000000     0.02407    
H151     H      0.601390000000     0.970440000000     0.707160000000     0.0251219  
H152     H      0.662770000000     0.968220000000     0.769010000000     0.0495711  
H153     H      0.318890000000     0.014550000000     0.769020000000     0.0498644  
H154     H      0.380270000000     0.012200000000     0.707180000000     0.0252738  
H155     H      0.274060000000     0.972910000000     0.601460000000     0.0239171  
H156     H      0.212330000000     0.971480000000     0.662950000000     0.0491666  
H157     H      0.162780000000     0.014580000000     0.712700000000     0.0499252  
H158     H      0.101390000000     0.012250000000     0.774550000000     0.0254233  
H159     H      0.207580000000     0.972950000000     0.880270000000     0.0238354  
H160     H      0.269310000000     0.971490000000     0.818790000000     0.049108   
H161     H      0.162700000000     0.965890000000     0.268960000000     0.0497372  
H162     H      0.101340000000     0.968370000000     0.207090000000     0.0252859  
H163     H      0.207650000000     0.007590000000     0.101450000000     0.0248033  
H164     H      0.269350000000     0.008920000000     0.162960000000     0.0501084  
H165     H      0.318870000000     0.965910000000     0.212760000000     0.0497114  
H166     H      0.380230000000     0.968390000000     0.274620000000     0.0251564  
H167     H      0.273930000000     0.007570000000     0.380280000000     0.0246797  
H168     H      0.212220000000     0.008890000000     0.318780000000     0.0500882  
H169     H      0.662800000000     0.971800000000     0.212300000000     0.0491815  
H170     H      0.601310000000     0.973290000000     0.274030000000     0.0236433  
H171     H      0.707120000000     0.012090000000     0.380320000000     0.0247265  
H172     H      0.768960000000     0.014470000000     0.318950000000     0.0497634  
H173     H      0.712620000000     0.014450000000     0.162690000000     0.0498651  
H174     H      0.774460000000     0.012050000000     0.101320000000     0.0248419  
H175     H      0.880250000000     0.973240000000     0.207630000000     0.0235973  
H176     H      0.818770000000     0.971780000000     0.269360000000     0.0490976  
H177     H      0.014800000000     0.269500000000     0.819530000000     0.0497949  
H178     H      0.012550000000     0.207560000000     0.880870000000     0.0252242  
H179     H      0.973150000000     0.101990000000     0.774550000000     0.0240155  
H180     H      0.971570000000     0.163530000000     0.712930000000     0.0491901  
H181     H      0.014530000000     0.213160000000     0.663350000000     0.0499242  
H182     H      0.011970000000     0.274880000000     0.601890000000     0.0253216  
H183     H      0.973200000000     0.380810000000     0.708080000000     0.0238642  
H184     H      0.971920000000     0.319400000000     0.769930000000     0.0490709  
H185     H      0.009940000000     0.819410000000     0.711820000000     0.0499792  
H186     H      0.008270000000     0.880850000000     0.773620000000     0.0245813  
H187     H      0.968730000000     0.775000000000     0.879600000000     0.0250151  
H188     H      0.966560000000     0.713240000000     0.818160000000     0.0496479  
H189     H      0.009890000000     0.663550000000     0.768900000000     0.0500154  
H190     H      0.008640000000     0.601980000000     0.707280000000     0.0246191  
H191     H      0.969970000000     0.707540000000     0.600700000000     0.0251111  
H192     H      0.967390000000     0.769500000000     0.661980000000     0.0496183  
H193     H      0.971720000000     0.662020000000     0.211820000000     0.049174   
H194     H      0.973220000000     0.600680000000     0.273700000000     0.0238914  
H195     H      0.013060000000     0.706560000000     0.379540000000     0.0252761  
H196     H      0.015420000000     0.768230000000     0.318000000000     0.0498282  
H197     H      0.972180000000     0.817910000000     0.268720000000     0.0489505  
H198     H      0.973450000000     0.879400000000     0.207060000000     0.0234553  
H199     H      0.011720000000     0.773670000000     0.100480000000     0.0254206  
H200     H      0.014290000000     0.711750000000     0.161850000000     0.0498899  
H201     H      0.009900000000     0.317820000000     0.212930000000     0.0500972  
H202     H      0.008490000000     0.379450000000     0.274480000000     0.0246686  
H203     H      0.968990000000     0.274090000000     0.380950000000     0.0251196  
H204     H      0.966550000000     0.212080000000     0.319710000000     0.0497922  
H205     H      0.009030000000     0.161920000000     0.270130000000     0.0501831  
H206     H      0.007600000000     0.100460000000     0.208320000000     0.0249814  
H207     H      0.969340000000     0.206450000000     0.102020000000     0.0252895  
H208     H      0.966920000000     0.268230000000     0.163410000000     0.0497242  
N1       N      0.492790000000     0.331570000000     0.149270000000    -0.191494   
N2       N      0.492920000000     0.148770000000     0.331330000000    -0.191503   
N3       N      0.489070000000     0.831320000000     0.332620000000    -0.191677   
N4       N      0.488660000000     0.648950000000     0.150260000000    -0.191634   
N5       N      0.493020000000     0.832610000000     0.650270000000    -0.191648   
N6       N      0.492260000000     0.649960000000     0.832400000000    -0.191603   
N7       N      0.489150000000     0.332530000000     0.831520000000    -0.191639   
N8       N      0.488810000000     0.149990000000     0.649270000000    -0.191555   
N9       N      0.648860000000     0.150500000000     0.489210000000    -0.191699   
N10      N      0.831590000000     0.332490000000     0.489620000000    -0.19167    
N11      N      0.832660000000     0.650290000000     0.492150000000    -0.191581   
N12      N      0.650250000000     0.832740000000     0.492010000000    -0.191523   
N13      N      0.149040000000     0.331450000000     0.492820000000    -0.191608   
N14      N      0.331560000000     0.149190000000     0.492050000000    -0.191617   
N15      N      0.150020000000     0.649240000000     0.489100000000    -0.191596   
N16      N      0.332660000000     0.831390000000     0.489410000000    -0.191565   
N17      N      0.831910000000     0.489130000000     0.332130000000    -0.191608   
N18      N      0.649720000000     0.489130000000     0.149540000000    -0.191553   
N19      N      0.331930000000     0.491740000000     0.149580000000    -0.191583   
N20      N      0.149710000000     0.491710000000     0.332130000000    -0.191559   
N21      N      0.149690000000     0.489120000000     0.649570000000    -0.19158    
N22      N      0.331900000000     0.489100000000     0.832140000000    -0.191594   
N23      N      0.831900000000     0.493290000000     0.649540000000    -0.191611   
N24      N      0.649700000000     0.493250000000     0.832130000000    -0.191599   
N25      N      0.831390000000     0.832710000000     0.989580000000    -0.191135   
N26      N      0.648980000000     0.650270000000     0.989450000000    -0.191136   
N27      N      0.832730000000     0.150480000000     0.992490000000    -0.192045   
N28      N      0.650000000000     0.332470000000     0.992100000000    -0.192053   
N29      N      0.148980000000     0.831410000000     0.992260000000    -0.191873   
N30      N      0.331620000000     0.649260000000     0.992570000000    -0.191941   
N31      N      0.332550000000     0.331470000000     0.988960000000    -0.191533   
N32      N      0.150030000000     0.149210000000     0.989730000000    -0.191847   
N33      N      0.831930000000     0.990120000000     0.832130000000    -0.191936   
N34      N      0.649720000000     0.990110000000     0.649530000000    -0.191919   
N35      N      0.331930000000     0.992460000000     0.649580000000    -0.191906   
N36      N      0.149720000000     0.992500000000     0.832150000000    -0.191889   
N37      N      0.149740000000     0.988110000000     0.149530000000    -0.191485   
N38      N      0.331840000000     0.988110000000     0.332190000000    -0.191545   
N39      N      0.649490000000     0.992580000000     0.331920000000    -0.191953   
N40      N      0.832080000000     0.992540000000     0.149730000000    -0.191928   
N41      N      0.992790000000     0.150030000000     0.832460000000    -0.191898   
N42      N      0.992440000000     0.332570000000     0.650210000000    -0.191957   
N43      N      0.988630000000     0.832650000000     0.831380000000    -0.191574   
N44      N      0.989380000000     0.650000000000     0.649250000000    -0.191519   
N45      N      0.993000000000     0.648910000000     0.331390000000    -0.19199    
N46      N      0.992540000000     0.831280000000     0.149030000000    -0.192012   
N47      N      0.988810000000     0.331530000000     0.332460000000    -0.191511   
N48      N      0.988630000000     0.148720000000     0.150400000000    -0.191373   
O1       O      0.987900000000     0.127350000000     0.070320000000    -0.375169   
O2       O      0.993490000000     0.853170000000     0.069050000000    -0.375262   
O3       O      0.912070000000     0.990140000000     0.128120000000    -0.376506   
O4       O      0.069730000000     0.986880000000     0.127870000000    -0.375379   
O5       O      0.128130000000     0.991380000000     0.069580000000    -0.37705    
O6       O      0.853680000000     0.993280000000     0.069710000000    -0.375879   
O7       O      0.989950000000     0.911270000000     0.127690000000    -0.376786   
O8       O      0.991540000000     0.068780000000     0.128550000000    -0.376828   
O9       O      0.039640000000     0.941390000000     0.039560000000    -0.506468   
O10      O      0.942200000000     0.039720000000     0.040080000000    -0.506474   
O11      O      0.941410000000     0.941700000000     0.039690000000    -0.652136   
O12      O      0.040040000000     0.039510000000     0.040200000000    -0.650913   
O13      O      0.987220000000     0.854090000000     0.911440000000    -0.375901   
O14      O      0.994320000000     0.128170000000     0.912440000000    -0.37529    
O15      O      0.853270000000     0.912710000000     0.988400000000    -0.375971   
O16      O      0.127510000000     0.911460000000     0.993710000000    -0.375523   
O17      O      0.128150000000     0.069250000000     0.988110000000    -0.375106   
O18      O      0.854130000000     0.070440000000     0.993550000000    -0.375317   
O19      O      0.911930000000     0.988480000000     0.853800000000    -0.375513   
O20      O      0.069710000000     0.994060000000     0.853810000000    -0.375328   
O21      O      0.853530000000     0.992950000000     0.912110000000    -0.377296   
O22      O      0.128100000000     0.989350000000     0.912110000000    -0.377272   
O23      O      0.911420000000     0.854050000000     0.991840000000    -0.377281   
O24      O      0.912660000000     0.128640000000     0.989880000000    -0.377245   
O25      O      0.070020000000     0.127820000000     0.992700000000    -0.377365   
O26      O      0.069050000000     0.853220000000     0.989100000000    -0.376497   
O27      O      0.991810000000     0.912560000000     0.853220000000    -0.377357   
O28      O      0.989760000000     0.070030000000     0.853880000000    -0.377126   
O29      O      0.039910000000     0.039760000000     0.942090000000    -0.506489   
O30      O      0.941660000000     0.942360000000     0.941810000000    -0.507379   
O31      O      0.941890000000     0.040390000000     0.941840000000    -0.652377   
O32      O      0.039750000000     0.941690000000     0.941540000000    -0.652008   
O33      O      0.987390000000     0.353450000000     0.412410000000    -0.375574   
O34      O      0.994350000000     0.627520000000     0.411480000000    -0.375744   
O35      O      0.911920000000     0.487560000000     0.353800000000    -0.375486   
O36      O      0.069700000000     0.493230000000     0.353790000000    -0.375142   
O37      O      0.128100000000     0.488970000000     0.412110000000    -0.377269   
O38      O      0.853530000000     0.492290000000     0.412090000000    -0.37724    
O39      O      0.989770000000     0.569040000000     0.353260000000    -0.377494   
O40      O      0.991910000000     0.411560000000     0.353830000000    -0.377373   
O41      O      0.039900000000     0.539430000000     0.441750000000    -0.507121   
O42      O      0.941720000000     0.441880000000     0.442070000000    -0.507713   
O43      O      0.941850000000     0.539940000000     0.441550000000    -0.65283    
O44      O      0.039800000000     0.441380000000     0.441880000000    -0.652267   
O45      O      0.988110000000     0.628130000000     0.569280000000    -0.375515   
O46      O      0.993600000000     0.354040000000     0.570150000000    -0.375844   
O47      O      0.854070000000     0.570210000000     0.493710000000    -0.375451   
O48      O      0.128160000000     0.569270000000     0.487710000000    -0.375369   
O49      O      0.127590000000     0.411510000000     0.494080000000    -0.375568   
O50      O      0.853500000000     0.412420000000     0.488010000000    -0.375599   
O51      O      0.911920000000     0.494440000000     0.627890000000    -0.375528   
O52      O      0.069670000000     0.487940000000     0.627920000000    -0.375076   
O53      O      0.853510000000     0.490170000000     0.569580000000    -0.377289   
O54      O      0.128100000000     0.491890000000     0.569600000000    -0.377283   
O55      O      0.912550000000     0.628420000000     0.489130000000    -0.377189   
O56      O      0.911610000000     0.353840000000     0.492550000000    -0.377333   
O57      O      0.069120000000     0.353260000000     0.489930000000    -0.376805   
O58      O      0.070000000000     0.627830000000     0.491840000000    -0.377029   
O59      O      0.992240000000     0.569980000000     0.627870000000    -0.377415   
O60      O      0.989430000000     0.412490000000     0.628420000000    -0.377415   
O61      O      0.039590000000     0.441890000000     0.539920000000    -0.507126   
O62      O      0.942050000000     0.540050000000     0.539620000000    -0.507734   
O63      O      0.941540000000     0.441990000000     0.540110000000    -0.652639   
O64      O      0.040080000000     0.539930000000     0.539830000000    -0.65228    
O65      O      0.569510000000     0.990180000000     0.353550000000    -0.376611   
O66      O      0.569720000000     0.988460000000     0.627870000000    -0.375592   
O67      O      0.627470000000     0.070460000000     0.488140000000    -0.37515    
O68      O      0.628350000000     0.912730000000     0.493230000000    -0.375962   
O69      O      0.570210000000     0.854070000000     0.489790000000    -0.377208   
O70      O      0.568930000000     0.128660000000     0.491830000000    -0.377143   
O71      O      0.628110000000     0.992940000000     0.569550000000    -0.377381   
O72      O      0.627920000000     0.993320000000     0.411950000000    -0.376263   
O73      O      0.539970000000     0.942350000000     0.539860000000    -0.50754    
O74      O      0.539400000000     0.039740000000     0.441620000000    -0.507182   
O75      O      0.539720000000     0.040380000000     0.539850000000    -0.65239    
O76      O      0.540190000000     0.941720000000     0.441980000000    -0.652601   
O77      O      0.411940000000     0.994020000000     0.627900000000    -0.375667   
O78      O      0.411850000000     0.986900000000     0.353840000000    -0.37576    
O79      O      0.487280000000     0.128140000000     0.569280000000    -0.375144   
O80      O      0.494430000000     0.854060000000     0.570210000000    -0.375875   
O81      O      0.488130000000     0.853190000000     0.412610000000    -0.375457   
O82      O      0.493670000000     0.127370000000     0.411400000000    -0.375576   
O83      O      0.353450000000     0.069230000000     0.493640000000    -0.375029   
O84      O      0.354120000000     0.911440000000     0.487990000000    -0.375348   
O85      O      0.411570000000     0.127800000000     0.489050000000    -0.377601   
O86      O      0.412590000000     0.853200000000     0.492570000000    -0.376753   
O87      O      0.491860000000     0.070000000000     0.627840000000    -0.376934   
O88      O      0.490030000000     0.068820000000     0.353170000000    -0.376824   
O89      O      0.491650000000     0.911310000000     0.353980000000    -0.376782   
O90      O      0.489830000000     0.912520000000     0.628450000000    -0.377167   
O91      O      0.353530000000     0.989320000000     0.569610000000    -0.377318   
O92      O      0.353460000000     0.991370000000     0.412150000000    -0.377477   
O93      O      0.441970000000     0.941400000000     0.442130000000    -0.507735   
O94      O      0.441700000000     0.039740000000     0.539620000000    -0.50719    
O95      O      0.441550000000     0.039510000000     0.441520000000    -0.652002   
O96      O      0.441870000000     0.941670000000     0.540150000000    -0.652771   
O97      O      0.354000000000     0.411540000000     0.987660000000    -0.37557    
O98      O      0.628100000000     0.412400000000     0.993680000000    -0.375835   
O99      O      0.487990000000     0.354020000000     0.911580000000    -0.375524   
O100     O      0.494220000000     0.353470000000     0.069310000000    -0.375064   
O101     O      0.489710000000     0.411600000000     0.127890000000    -0.377138   
O102     O      0.492160000000     0.412460000000     0.853290000000    -0.377218   
O103     O      0.569980000000     0.353830000000     0.989160000000    -0.3775     
O104     O      0.412470000000     0.353270000000     0.991820000000    -0.377299   
O105     O      0.539890000000     0.441880000000     0.039630000000    -0.50717    
O106     O      0.442010000000     0.441880000000     0.941790000000    -0.507553   
O107     O      0.540070000000     0.441970000000     0.941580000000    -0.652757   
O108     O      0.441820000000     0.441400000000     0.039830000000    -0.65231    
O109     O      0.627560000000     0.570190000000     0.987930000000    -0.375534   
O110     O      0.353470000000     0.569290000000     0.993970000000    -0.37574    
O111     O      0.569670000000     0.494400000000     0.853780000000    -0.37544    
O112     O      0.569710000000     0.487580000000     0.127880000000    -0.375461   
O113     O      0.411940000000     0.493270000000     0.127910000000    -0.375504   
O114     O      0.411920000000     0.487920000000     0.853780000000    -0.375459   
O115     O      0.493530000000     0.628100000000     0.912370000000    -0.375386   
O116     O      0.487290000000     0.627550000000     0.070170000000    -0.375119   
O117     O      0.489380000000     0.569940000000     0.853800000000    -0.37728    
O118     O      0.491880000000     0.569080000000     0.128410000000    -0.377313   
O119     O      0.628090000000     0.490130000000     0.912090000000    -0.377206   
O120     O      0.353510000000     0.491890000000     0.912120000000    -0.377217   
O121     O      0.353530000000     0.489000000000     0.069600000000    -0.376899   
O122     O      0.628100000000     0.492290000000     0.069580000000    -0.376886   
O123     O      0.569080000000     0.628410000000     0.992510000000    -0.377356   
O124     O      0.411640000000     0.627840000000     0.989830000000    -0.377473   
O125     O      0.441730000000     0.539450000000     0.039940000000    -0.50709    
O126     O      0.539570000000     0.540030000000     0.942050000000    -0.507674   
O127     O      0.441540000000     0.539920000000     0.941860000000    -0.652694   
O128     O      0.539770000000     0.539940000000     0.040120000000    -0.652213   
Zr1      Zr     0.990850000000     0.990170000000     0.088350000000     1.4278     
Zr2      Zr     0.990420000000     0.893300000000     0.990450000000     1.427      
Zr3      Zr     0.991160000000     0.088330000000     0.991210000000     1.42713    
Zr4      Zr     0.893310000000     0.991440000000     0.990880000000     1.4269     
Zr5      Zr     0.088300000000     0.990490000000     0.990850000000     1.42689    
Zr6      Zr     0.990810000000     0.991160000000     0.893340000000     1.4273     
Zr7      Zr     0.990810000000     0.490470000000     0.393340000000     1.42826    
Zr8      Zr     0.991130000000     0.588310000000     0.490530000000     1.4283     
Zr9      Zr     0.990520000000     0.393310000000     0.491140000000     1.42841    
Zr10     Zr     0.893320000000     0.491150000000     0.490840000000     1.42938    
Zr11     Zr     0.088320000000     0.490520000000     0.490850000000     1.42947    
Zr12     Zr     0.990800000000     0.491100000000     0.588360000000     1.42826    
Zr13     Zr     0.588310000000     0.991460000000     0.490790000000     1.42801    
Zr14     Zr     0.490820000000     0.991130000000     0.588340000000     1.42832    
Zr15     Zr     0.490740000000     0.990190000000     0.393340000000     1.42883    
Zr16     Zr     0.490430000000     0.088330000000     0.490500000000     1.42939    
Zr17     Zr     0.491200000000     0.893300000000     0.491210000000     1.42927    
Zr18     Zr     0.393310000000     0.990480000000     0.490860000000     1.42816    
Zr19     Zr     0.491090000000     0.393310000000     0.990580000000     1.42836    
Zr20     Zr     0.588300000000     0.491140000000     0.990840000000     1.42819    
Zr21     Zr     0.393290000000     0.490540000000     0.990850000000     1.42831    
Zr22     Zr     0.490800000000     0.491070000000     0.893330000000     1.42929    
Zr23     Zr     0.490810000000     0.490500000000     0.088350000000     1.42951    
Zr24     Zr     0.490500000000     0.588310000000     0.991130000000     1.42825    


