data_structure

_audit_creation_method RASPA-1.0
_audit_creation_date 2023-5-19
_audit_author_name 'Poobodin Mano'

_cell_length_a    22.5486
_cell_length_b    22.316
_cell_length_c    22.342
_cell_angle_alpha 90
_cell_angle_beta  90
_cell_angle_gamma 90
_cell_volume      11242.4

_symmetry_cell_setting          triclinic
_symmetry_space_group_name_Hall 'P 1'
_symmetry_space_group_name_H-M  'P 1'
_symmetry_Int_Tables_number     1

_symmetry_equiv_pos_as_xyz 'x,y,z'

loop_
_atom_site_label
_atom_site_type_symbol
_atom_site_fract_x
_atom_site_fract_y
_atom_site_fract_z
_atom_site_charge
C1       C      0.969410000000     0.172230000000     0.202180000000     0.399352   
C2       C      0.084970000000     0.885220000000     0.183910000000     0.398409   
C3       C      0.883100000000     0.972960000000     0.170250000000     0.40143    
C4       C      0.165070000000     0.091790000000     0.211450000000     0.4074     
C5       C      0.118130000000     0.919310000000     0.884890000000     0.405502   
C6       C      0.995000000000     0.200310000000     0.901750000000     0.408238   
C7       C      0.976600000000     0.842270000000     0.009510000000     0.409814   
C8       C      0.242570000000     0.976860000000     0.058660000000     0.412557   
C9       C      0.107790000000     0.247160000000     0.067240000000     0.40939    
C10      C      0.839600000000     0.110670000000     0.032190000000     0.41428    
C11      C      0.919010000000     0.002020000000     0.869930000000     0.401947   
C12      C      0.192430000000     0.125050000000     0.912370000000     0.407294   
C13      C      0.045630000000     0.373370000000     0.420320000000     0.401816   
C14      C      0.038360000000     0.678630000000     0.362030000000     0.403711   
C15      C      0.892610000000     0.519790000000     0.405140000000     0.406708   
C16      C      0.190260000000     0.538240000000     0.366940000000     0.406057   
C17      C      0.060690000000     0.735260000000     0.657100000000     0.406144   
C18      C      0.091430000000     0.436120000000     0.714290000000     0.407999   
C19      C      0.899640000000     0.695520000000     0.527300000000     0.412422   
C20      C      0.199130000000     0.712790000000     0.494990000000     0.404585   
C21      C      0.223130000000     0.415370000000     0.550230000000     0.405817   
C22      C      0.922560000000     0.394980000000     0.579350000000     0.405354   
C23      C      0.922450000000     0.569210000000     0.703590000000     0.400829   
C24      C      0.223940000000     0.599020000000     0.667760000000     0.401201   
C25      C      0.678550000000     0.000740000000     0.397390000000     0.398154   
C26      C      0.371370000000     0.017390000000     0.407030000000     0.403305   
C27      C      0.517060000000     0.859670000000     0.423250000000     0.405051   
C28      C      0.530910000000     0.162400000000     0.374730000000     0.403704   
C29      C      0.384600000000     0.066160000000     0.705190000000     0.407375   
C30      C      0.687030000000     0.041210000000     0.695940000000     0.403933   
C31      C      0.364610000000     0.898760000000     0.578690000000     0.406401   
C32      C      0.391190000000     0.196020000000     0.522920000000     0.40561    
C33      C      0.693350000000     0.170450000000     0.522770000000     0.405407   
C34      C      0.661700000000     0.867790000000     0.555650000000     0.412847   
C35      C      0.525020000000     0.906530000000     0.725330000000     0.40345    
C36      C      0.544210000000     0.209580000000     0.676680000000     0.403328   
C37      C      0.342860000000     0.476940000000     0.064790000000     0.408892   
C38      C      0.476980000000     0.748590000000     0.040770000000     0.410381   
C39      C      0.413840000000     0.617180000000     0.205260000000     0.404712   
C40      C      0.403740000000     0.595850000000     0.898210000000     0.401728   
C41      C      0.747720000000     0.613050000000     0.040350000000     0.408387   
C42      C      0.610770000000     0.341190000000     0.061480000000     0.413692   
C43      C      0.610270000000     0.694520000000     0.194680000000     0.404244   
C44      C      0.597010000000     0.680940000000     0.891370000000     0.40498    
C45      C      0.483610000000     0.396310000000     0.909870000000     0.405756   
C46      C      0.488050000000     0.416100000000     0.215310000000     0.402115   
C47      C      0.687610000000     0.488740000000     0.203390000000     0.406624   
C48      C      0.684010000000     0.478380000000     0.900540000000     0.400825   
C49      C      0.450950000000     0.318400000000     0.253750000000     0.0154324  
C50      C      0.456200000000     0.280880000000     0.311390000000    -0.105632   
C51      C      0.520860000000     0.263340000000     0.326730000000     0.0183362  
C52      C      0.598810000000     0.739040000000     0.295680000000     0.0185933  
C53      C      0.531060000000     0.750560000000     0.295600000000    -0.101955   
C54      C      0.514080000000     0.811310000000     0.323160000000     0.0152666  
C55      C      0.590070000000     0.715100000000     0.784950000000     0.0150963  
C56      C      0.579900000000     0.776470000000     0.754870000000    -0.104942   
C57      C      0.521130000000     0.805880000000     0.774560000000     0.0203936  
C58      C      0.522460000000     0.262160000000     0.772760000000     0.0152805  
C59      C      0.463650000000     0.297810000000     0.774370000000    -0.104982   
C60      C      0.469480000000     0.358850000000     0.805950000000     0.016316   
C61      C      0.746290000000     0.269200000000     0.529960000000     0.0164264  
C62      C      0.809790000000     0.281110000000     0.551950000000    -0.109369   
C63      C      0.823110000000     0.345260000000     0.572560000000     0.0162514  
C64      C      0.749270000000     0.824120000000     0.506930000000     0.0206991  
C65      C      0.760570000000     0.764180000000     0.475170000000    -0.110335   
C66      C      0.792930000000     0.719220000000     0.515400000000     0.0209926  
C67      C      0.367680000000     0.301460000000     0.495190000000     0.0210441  
C68      C      0.373590000000     0.341110000000     0.551460000000    -0.105906   
C69      C      0.331060000000     0.394870000000     0.550690000000     0.0168321  
C70      C      0.256000000000     0.882520000000     0.587140000000     0.0159073  
C71      C      0.212790000000     0.835360000000     0.562890000000    -0.103152   
C72      C      0.222780000000     0.821230000000     0.495810000000     0.0211663  
C73      C      0.783250000000     0.442300000000     0.232520000000     0.0161506  
C74      C      0.824460000000     0.440830000000     0.287170000000    -0.106194   
C75      C      0.847340000000     0.503680000000     0.304230000000     0.0187109  
C76      C      0.313940000000     0.648450000000     0.241060000000     0.0155907  
C77      C      0.278560000000     0.632760000000     0.297770000000    -0.104674   
C78      C      0.284410000000     0.565980000000     0.315780000000     0.0199642  
C79      C      0.265550000000     0.644640000000     0.760750000000     0.0209793  
C80      C      0.261370000000     0.598360000000     0.811860000000    -0.106733   
C81      C      0.299620000000     0.615550000000     0.866460000000     0.0156568  
C82      C      0.738620000000     0.497550000000     0.804850000000     0.0133017  
C83      C      0.802950000000     0.521120000000     0.806000000000    -0.108379   
C84      C      0.821780000000     0.553070000000     0.748100000000     0.0138968  
C85      C      0.817330000000     0.694480000000     0.018240000000     0.0188974  
C86      C      0.883970000000     0.705670000000     0.013910000000    -0.115764   
C87      C      0.895550000000     0.769800000000     0.992960000000     0.0217162  
C88      C      0.769600000000     0.193390000000     0.041390000000     0.0217965  
C89      C      0.703320000000     0.203980000000     0.048000000000    -0.115169   
C90      C      0.693040000000     0.269780000000     0.062620000000     0.0219118  
C91      C      0.393210000000     0.818400000000     0.039230000000     0.0193424  
C92      C      0.380850000000     0.884650000000     0.050330000000    -0.11462    
C93      C      0.314050000000     0.894160000000     0.056040000000     0.0208582  
C94      C      0.190950000000     0.317030000000     0.080930000000     0.0188982  
C95      C      0.204390000000     0.383770000000     0.073800000000    -0.113284   
C96      C      0.271380000000     0.394400000000     0.077330000000     0.0190093  
C97      C      0.819220000000     0.982170000000     0.826170000000     0.0196047  
C98      C      0.784550000000     0.041490000000     0.833580000000    -0.108168   
C99      C      0.724530000000     0.041500000000     0.800760000000     0.0166246  
C100     C      0.237670000000     0.140790000000     0.811980000000     0.0225396  
C101     C      0.242330000000     0.074450000000     0.793310000000    -0.106658   
C102     C      0.279480000000     0.066100000000     0.736470000000     0.0170685  
C103     C      0.310260000000     0.056150000000     0.325570000000     0.0157958  
C104     C      0.258550000000     0.094910000000     0.350320000000    -0.107416   
C105     C      0.199470000000     0.083830000000     0.317520000000     0.0182984  
C106     C      0.830300000000     0.955370000000     0.267910000000     0.0175312  
C107     C      0.773230000000     0.922350000000     0.288950000000    -0.107355   
C108     C      0.718990000000     0.963820000000     0.298880000000     0.0158832  
C109     C      0.022060000000     0.258320000000     0.811010000000     0.0164254  
C110     C      0.039420000000     0.324770000000     0.809610000000    -0.108606   
C111     C      0.090870000000     0.337710000000     0.766920000000     0.016622   
C112     C      0.055060000000     0.789730000000     0.754010000000     0.018792   
C113     C      0.050720000000     0.855060000000     0.775730000000    -0.106635   
C114     C      0.111790000000     0.886040000000     0.779400000000     0.0203187  
C115     C      0.057560000000     0.700850000000     0.254130000000     0.0187102  
C116     C      0.119250000000     0.729730000000     0.244460000000    -0.106703   
C117     C      0.119760000000     0.781200000000     0.198490000000     0.0156296  
C118     C      0.001820000000     0.314400000000     0.335470000000     0.0154296  
C119     C      0.954240000000     0.264710000000     0.343510000000    -0.106619   
C120     C      0.967760000000     0.206370000000     0.308780000000     0.0158575  
H1       H      0.993060000000     0.922100000000     0.110840000000     0.205299   
H2       H      0.071730000000     0.148180000000     0.142660000000     0.209726   
H3       H      0.937370000000     0.094240000000     0.950090000000     0.210995   
H4       H      0.163440000000     0.013060000000     0.964630000000     0.209842   
H5       H      0.960410000000     0.617700000000     0.447710000000     0.208716   
H6       H      0.141620000000     0.458590000000     0.458250000000     0.205015   
H7       H      0.991520000000     0.482110000000     0.646410000000     0.207834   
H8       H      0.145440000000     0.659890000000     0.595020000000     0.210655   
H9       H      0.436020000000     0.943470000000     0.480820000000     0.208855   
H10      H      0.617430000000     0.098930000000     0.449100000000     0.209196   
H11      H      0.610190000000     0.954780000000     0.645170000000     0.207543   
H12      H      0.455230000000     0.139460000000     0.622970000000     0.205544   
H13      H      0.507720000000     0.664040000000     0.131220000000     0.208215   
H14      H      0.431380000000     0.499770000000     0.971200000000     0.206936   
H15      H      0.587380000000     0.436170000000     0.143030000000     0.211394   
H16      H      0.657120000000     0.581650000000     0.961830000000     0.209956   
H17      H      0.403340000000     0.322330000000     0.241440000000     0.0298018  
H18      H      0.473410000000     0.295120000000     0.215990000000     0.0345117  
H19      H      0.526210000000     0.177440000000     0.283210000000     0.0980088  
H20      H      0.436560000000     0.306280000000     0.349360000000     0.0505491  
H21      H      0.428420000000     0.240040000000     0.305870000000     0.0539429  
H22      H      0.532740000000     0.282040000000     0.371270000000     0.0353763  
H23      H      0.552040000000     0.283070000000     0.293580000000     0.0287329  
H24      H      0.483060000000     0.394430000000     0.305240000000     0.0981365  
H25      H      0.607590000000     0.694780000000     0.316820000000     0.0345742  
H26      H      0.622590000000     0.773500000000     0.322490000000     0.0275887  
H27      H      0.514720000000     0.767920000000     0.410330000000     0.0980477  
H28      H      0.513380000000     0.749400000000     0.249120000000     0.0527153  
H29      H      0.508000000000     0.713860000000     0.319960000000     0.0525373  
H30      H      0.467980000000     0.822480000000     0.309500000000     0.0282725  
H31      H      0.543040000000     0.847480000000     0.305220000000     0.0362209  
H32      H      0.641930000000     0.778630000000     0.218830000000     0.0974252  
H33      H      0.626740000000     0.691780000000     0.761270000000     0.0272642  
H34      H      0.549830000000     0.686580000000     0.780530000000     0.0364601  
H35      H      0.530930000000     0.892110000000     0.816820000000     0.0989717  
H36      H      0.618080000000     0.806370000000     0.765050000000     0.0553723  
H37      H      0.579100000000     0.770270000000     0.705500000000     0.0559198  
H38      H      0.509090000000     0.790810000000     0.820450000000     0.0315345  
H39      H      0.485190000000     0.791650000000     0.743550000000     0.0342969  
H40      H      0.627620000000     0.762560000000     0.860680000000     0.0990091  
H41      H      0.514760000000     0.216570000000     0.791250000000     0.036706   
H42      H      0.556500000000     0.284020000000     0.801400000000     0.0334502  
H43      H      0.449850000000     0.312810000000     0.889300000000     0.098838   
H44      H      0.447260000000     0.305840000000     0.728060000000     0.0499607  
H45      H      0.428690000000     0.270580000000     0.796580000000     0.0489014  
H46      H      0.431730000000     0.387760000000     0.792170000000     0.0273555  
H47      H      0.510640000000     0.382320000000     0.791610000000     0.0356073  
H48      H      0.553740000000     0.300870000000     0.690450000000     0.0982054  
H49      H      0.737210000000     0.296640000000     0.489490000000     0.0286674  
H50      H      0.713490000000     0.281190000000     0.565170000000     0.0346896  
H51      H      0.905150000000     0.309150000000     0.607640000000     0.0968719  
H52      H      0.818950000000     0.250100000000     0.589880000000     0.0545392  
H53      H      0.841170000000     0.269870000000     0.515140000000     0.0536022  
H54      H      0.794820000000     0.356400000000     0.611730000000     0.0285449  
H55      H      0.813410000000     0.377590000000     0.535940000000     0.0357418  
H56      H      0.781150000000     0.183150000000     0.503140000000     0.0976507  
H57      H      0.742160000000     0.859030000000     0.472040000000     0.0347432  
H58      H      0.788020000000     0.838930000000     0.533740000000     0.0310401  
H59      H      0.867660000000     0.780810000000     0.515290000000     0.100277   
H60      H      0.717690000000     0.744680000000     0.460110000000     0.0517047  
H61      H      0.787530000000     0.772170000000     0.434230000000     0.0508054  
H62      H      0.788630000000     0.673780000000     0.495380000000     0.0324354  
H63      H      0.772330000000     0.717450000000     0.560540000000     0.0306942  
H64      H      0.681900000000     0.777690000000     0.558930000000     0.0986704  
H65      H      0.410380000000     0.301810000000     0.470210000000     0.0322237  
H66      H      0.333180000000     0.319460000000     0.464460000000     0.0258734  
H67      H      0.259170000000     0.331640000000     0.567090000000     0.099639   
H68      H      0.366080000000     0.314740000000     0.593060000000     0.0558684  
H69      H      0.419740000000     0.358500000000     0.553970000000     0.0489189  
H70      H      0.337640000000     0.421560000000     0.509130000000     0.0319455  
H71      H      0.341960000000     0.424940000000     0.588810000000     0.0306821  
H72      H      0.305950000000     0.230010000000     0.513620000000     0.0969693  
H73      H      0.244020000000     0.892360000000     0.634380000000     0.0270911  
H74      H      0.250440000000     0.924830000000     0.561400000000     0.036061   
H75      H      0.283780000000     0.747760000000     0.483510000000     0.0987362  
H76      H      0.216260000000     0.794290000000     0.590940000000     0.0551879  
H77      H      0.166900000000     0.852600000000     0.568910000000     0.0500461  
H78      H      0.258520000000     0.849710000000     0.476580000000     0.0276263  
H79      H      0.181350000000     0.831160000000     0.470630000000     0.0332236  
H80      H      0.325870000000     0.815420000000     0.591830000000     0.0998236  
H81      H      0.773390000000     0.395590000000     0.218390000000     0.0283244  
H82      H      0.805880000000     0.464520000000     0.194220000000     0.034888   
H83      H      0.802530000000     0.512180000000     0.388780000000     0.0976556  
H84      H      0.800250000000     0.419660000000     0.325090000000     0.0545892  
H85      H      0.863040000000     0.411470000000     0.277080000000     0.0483795  
H86      H      0.819010000000     0.538900000000     0.283670000000     0.0313886  
H87      H      0.892920000000     0.509900000000     0.286320000000     0.0352476  
H88      H      0.716450000000     0.481790000000     0.291020000000     0.0986108  
H89      H      0.308590000000     0.697020000000     0.231520000000     0.025822   
H90      H      0.295770000000     0.623270000000     0.202170000000     0.0354079  
H91      H      0.208000000000     0.523620000000     0.277070000000     0.0980932  
H92      H      0.294110000000     0.661430000000     0.335350000000     0.0533342  
H93      H      0.231350000000     0.644810000000     0.289820000000     0.0534518  
H94      H      0.307020000000     0.562700000000     0.359910000000     0.0353279  
H95      H      0.311820000000     0.541070000000     0.282700000000     0.0322445  
H96      H      0.393940000000     0.636890000000     0.293310000000     0.0970358  
H97      H      0.305010000000     0.673900000000     0.767030000000     0.0251702  
H98      H      0.225650000000     0.673980000000     0.761860000000     0.0305846  
H99      H      0.376240000000     0.598340000000     0.810140000000     0.0995535  
H100     H      0.214300000000     0.594730000000     0.826250000000     0.0535353  
H101     H      0.274990000000     0.553110000000     0.796070000000     0.0606035  
H102     H      0.285130000000     0.588570000000     0.905700000000     0.0321236  
H103     H      0.292860000000     0.663430000000     0.878390000000     0.0303364  
H104     H      0.313570000000     0.611460000000     0.684290000000     0.0974696  
H105     H      0.733560000000     0.466390000000     0.766400000000     0.0285491  
H106     H      0.707170000000     0.535540000000     0.799200000000     0.0340123  
H107     H      0.902280000000     0.581850000000     0.793110000000     0.0965382  
H108     H      0.807880000000     0.552570000000     0.844310000000     0.0526707  
H109     H      0.833610000000     0.482770000000     0.813440000000     0.0529779  
H110     H      0.794730000000     0.594320000000     0.742510000000     0.0294726  
H111     H      0.813210000000     0.523350000000     0.709090000000     0.0358508  
H112     H      0.760430000000     0.434880000000     0.874630000000     0.0979487  
H113     H      0.795720000000     0.705340000000     0.974760000000     0.0299209  
H114     H      0.797570000000     0.724530000000     0.052650000000     0.0342694  
H115     H      0.990010000000     0.751220000000     0.996960000000     0.0984445  
H116     H      0.904250000000     0.698620000000     0.058760000000     0.0558442  
H117     H      0.904320000000     0.673740000000     0.981670000000     0.0524714  
H118     H      0.867190000000     0.801390000000     0.018850000000     0.0336331  
H119     H      0.883220000000     0.774060000000     0.944960000000     0.028057   
H120     H      0.838740000000     0.600730000000     0.035340000000     0.0977192  
H121     H      0.792950000000     0.208890000000     0.082540000000     0.0342724  
H122     H      0.787210000000     0.220080000000     0.003230000000     0.0294789  
H123     H      0.598810000000     0.249280000000     0.067910000000     0.0993687  
H124     H      0.680570000000     0.192270000000     0.005400000000     0.0551443  
H125     H      0.685370000000     0.175590000000     0.084700000000     0.054474   
H126     H      0.715780000000     0.298330000000     0.028740000000     0.0350665  
H127     H      0.712530000000     0.280620000000     0.107080000000     0.0279321  
H128     H      0.748620000000     0.099730000000     0.023000000000     0.0983096  
H129     H      0.373680000000     0.804520000000     0.995640000000     0.0322256  
H130     H      0.371450000000     0.791110000000     0.074760000000     0.0321522  
H131     H      0.333150000000     0.988920000000     0.069630000000     0.0997414  
H132     H      0.403050000000     0.899210000000     0.092340000000     0.0546573  
H133     H      0.398360000000     0.911510000000     0.012300000000     0.0542389  
H134     H      0.296840000000     0.869430000000     0.095650000000     0.0311316  
H135     H      0.291220000000     0.875710000000     0.015840000000     0.0320088  
H136     H      0.487300000000     0.840930000000     0.035690000000     0.0988797  
H137     H      0.205130000000     0.301660000000     0.126090000000     0.0298271  
H138     H      0.216960000000     0.290980000000     0.047480000000     0.0358102  
H139     H      0.251890000000     0.489640000000     0.069260000000     0.097413   
H140     H      0.187720000000     0.399460000000     0.029640000000     0.0543097  
H141     H      0.181680000000     0.409390000000     0.109820000000     0.052362   
H142     H      0.294370000000     0.367640000000     0.042250000000     0.0324022  
H143     H      0.288520000000     0.379020000000     0.121440000000     0.0314619  
H144     H      0.096970000000     0.339380000000     0.073710000000     0.0980798  
H145     H      0.805270000000     0.958550000000     0.784710000000     0.0268962  
H146     H      0.809440000000     0.952190000000     0.864700000000     0.0353127  
H147     H      0.775640000000     0.036760000000     0.718310000000     0.0990087  
H148     H      0.776840000000     0.049660000000     0.882060000000     0.0537806  
H149     H      0.811130000000     0.079920000000     0.816570000000     0.0563454  
H150     H      0.699120000000     0.082240000000     0.813550000000     0.0328577  
H151     H      0.697560000000     0.002200000000     0.814770000000     0.0294602  
H152     H      0.899690000000     0.004300000000     0.779230000000     0.0962647  
H153     H      0.196360000000     0.160170000000     0.792840000000     0.0303127  
H154     H      0.275910000000     0.166950000000     0.794430000000     0.0246797  
H155     H      0.357630000000     0.078170000000     0.792940000000     0.099196   
H156     H      0.261980000000     0.046950000000     0.829840000000     0.0568871  
H157     H      0.196980000000     0.056690000000     0.785020000000     0.055352   
H158     H      0.265630000000     0.098550000000     0.701330000000     0.0313873  
H159     H      0.271060000000     0.020570000000     0.718050000000     0.0320493  
H160     H      0.273880000000     0.165670000000     0.897710000000     0.0982352  
H161     H      0.349260000000     0.085340000000     0.316290000000     0.0322071  
H162     H      0.297580000000     0.034270000000     0.282750000000     0.0342644  
H163     H      0.240100000000     0.132110000000     0.244440000000     0.0990334  
H164     H      0.251770000000     0.086560000000     0.398930000000     0.0558267  
H165     H      0.270420000000     0.143140000000     0.346370000000     0.0501979  
H166     H      0.163280000000     0.108190000000     0.340920000000     0.0276619  
H167     H      0.187900000000     0.035370000000     0.318070000000     0.0331504  
H168     H      0.288970000000     0.985480000000     0.385210000000     0.0968859  
H169     H      0.869890000000     0.931850000000     0.286050000000     0.0302962  
H170     H      0.832060000000     0.001890000000     0.285580000000     0.0320689  
H171     H      0.766350000000     0.003160000000     0.372430000000     0.0984888  
H172     H      0.761200000000     0.886780000000     0.256270000000     0.0493503  
H173     H      0.782970000000     0.898460000000     0.331540000000     0.0508893  
H174     H      0.677550000000     0.936910000000     0.296240000000     0.0330429  
H175     H      0.717160000000     0.998450000000     0.263180000000     0.0312743  
H176     H      0.796720000000     0.943880000000     0.178030000000     0.0995115  
H177     H      0.062610000000     0.229870000000     0.811110000000     0.0367676  
H178     H      0.995940000000     0.247550000000     0.770230000000     0.0277013  
H179     H      0.109550000000     0.424780000000     0.804480000000     0.097388   
H180     H      0.000050000000     0.351620000000     0.796100000000     0.0535393  
H181     H      0.052780000000     0.339250000000     0.855350000000     0.0558474  
H182     H      0.081280000000     0.318110000000     0.722200000000     0.0367654  
H183     H      0.131580000000     0.316290000000     0.785100000000     0.0271848  
H184     H      0.956480000000     0.280840000000     0.877990000000     0.0976309  
H185     H      0.014380000000     0.765130000000     0.767760000000     0.0327636  
H186     H      0.093120000000     0.766210000000     0.775270000000     0.0319862  
H187     H      0.157200000000     0.841750000000     0.851850000000     0.0982248  
H188     H      0.021190000000     0.880860000000     0.745290000000     0.0528733  
H189     H      0.028640000000     0.855710000000     0.820260000000     0.060507   
H190     H      0.106860000000     0.933860000000     0.766260000000     0.0325197  
H191     H      0.143610000000     0.864990000000     0.747700000000     0.0245679  
H192     H      0.060260000000     0.827310000000     0.664440000000     0.0972411  
H193     H      0.060970000000     0.651480000000     0.248210000000     0.0340757  
H194     H      0.025430000000     0.717900000000     0.220450000000     0.0271922  
H195     H      0.081110000000     0.840860000000     0.265890000000     0.0980364  
H196     H      0.138760000000     0.745560000000     0.287390000000     0.0573999  
H197     H      0.149630000000     0.694370000000     0.227420000000     0.0453531  
H198     H      0.097010000000     0.766740000000     0.156710000000     0.0329557  
H199     H      0.166570000000     0.790350000000     0.185710000000     0.0311703  
H200     H      0.026160000000     0.761090000000     0.321530000000     0.0986259  
H201     H      0.979450000000     0.357260000000     0.323770000000     0.0352111  
H202     H      0.032130000000     0.303150000000     0.297880000000     0.0307044  
H203     H      0.936960000000     0.253950000000     0.230150000000     0.0978505  
H204     H      0.949100000000     0.253430000000     0.391740000000     0.0517645  
H205     H      0.910320000000     0.282250000000     0.329110000000     0.0490536  
H206     H      0.939630000000     0.169590000000     0.326670000000     0.030434   
H207     H      0.014660000000     0.192480000000     0.315560000000     0.0313869  
H208     H      0.050370000000     0.281230000000     0.411560000000     0.0975439  
N1       N      0.527700000000     0.197920000000     0.325310000000    -0.218399   
N2       N      0.475170000000     0.378930000000     0.261750000000    -0.217998   
N3       N      0.516300000000     0.809540000000     0.388780000000    -0.218496   
N4       N      0.621840000000     0.739310000000     0.234240000000    -0.219104   
N5       N      0.526210000000     0.871430000000     0.775060000000    -0.218721   
N6       N      0.607120000000     0.722430000000     0.847980000000    -0.217659   
N7       N      0.467600000000     0.352200000000     0.871230000000    -0.218425   
N8       N      0.544750000000     0.259780000000     0.711120000000    -0.218161   
N9       N      0.885760000000     0.348200000000     0.590500000000    -0.218817   
N10      N      0.741800000000     0.205450000000     0.514380000000    -0.218652   
N11      N      0.855450000000     0.735970000000     0.521210000000    -0.221186   
N12      N      0.697320000000     0.820020000000     0.546070000000    -0.220648   
N13      N      0.268840000000     0.376130000000     0.555950000000    -0.218638   
N14      N      0.351200000000     0.240200000000     0.511890000000    -0.220118   
N15      N      0.238770000000     0.758100000000     0.488170000000    -0.219773   
N16      N      0.317690000000     0.861140000000     0.585590000000    -0.217966   
N17      N      0.844710000000     0.511660000000     0.369240000000    -0.219539   
N18      N      0.727160000000     0.472810000000     0.246320000000    -0.218921   
N19      N      0.225780000000     0.538040000000     0.317870000000    -0.219721   
N20      N      0.377060000000     0.635580000000     0.249660000000    -0.219134   
N21      N      0.362740000000     0.604700000000     0.854520000000    -0.217969   
N22      N      0.270920000000     0.615020000000     0.702370000000    -0.219155   
N23      N      0.884880000000     0.570050000000     0.751310000000    -0.217273   
N24      N      0.727100000000     0.464270000000     0.860390000000    -0.217249   
N25      N      0.958210000000     0.785270000000     0.999840000000    -0.220957   
N26      N      0.804320000000     0.632150000000     0.033560000000    -0.221245   
N27      N      0.629930000000     0.283860000000     0.063900000000    -0.222448   
N28      N      0.782910000000     0.130280000000     0.031110000000    -0.222902   
N29      N      0.299360000000     0.957560000000     0.062500000000    -0.22187    
N30      N      0.456800000000     0.805680000000     0.038350000000    -0.221553   
N31      N      0.285990000000     0.457800000000     0.069650000000    -0.220666   
N32      N      0.127650000000     0.304190000000     0.073450000000    -0.220376   
N33      N      0.732660000000     0.040700000000     0.735600000000    -0.218824   
N34      N      0.882910000000     0.994690000000     0.821810000000    -0.218623   
N35      N      0.343180000000     0.072330000000     0.748800000000    -0.219355   
N36      N      0.236800000000     0.146310000000     0.877240000000    -0.220803   
N37      N      0.203390000000     0.105760000000     0.256040000000    -0.219548   
N38      N      0.325390000000     0.009600000000     0.368930000000    -0.21796    
N39      N      0.723510000000     0.993100000000     0.357390000000    -0.215842   
N40      N      0.834300000000     0.956680000000     0.202420000000    -0.216652   
N41      N      0.100240000000     0.402700000000     0.764240000000    -0.219503   
N42      N      0.985490000000     0.246950000000     0.864080000000    -0.21938    
N43      N      0.134770000000     0.881190000000     0.840540000000    -0.219642   
N44      N      0.060340000000     0.787160000000     0.688710000000    -0.219582   
N45      N      0.093390000000     0.837350000000     0.220900000000    -0.216403   
N46      N      0.035720000000     0.715850000000     0.313900000000    -0.218268   
N47      N      0.955160000000     0.213340000000     0.244770000000    -0.217465   
N48      N      0.037010000000     0.320860000000     0.390430000000    -0.216938   
O1       O      0.962400000000     0.189170000000     0.147400000000    -0.383508   
O2       O      0.101030000000     0.879120000000     0.128730000000    -0.381234   
O3       O      0.930120000000     0.992780000000     0.197710000000    -0.368996   
O4       O      0.116250000000     0.063230000000     0.223680000000    -0.370975   
O5       O      0.181110000000     0.108640000000     0.158850000000    -0.388946   
O6       O      0.878140000000     0.968050000000     0.112960000000    -0.381409   
O7       O      0.060250000000     0.933070000000     0.205780000000    -0.376951   
O8       O      0.990760000000     0.120570000000     0.218370000000    -0.373924   
O9       O      0.114430000000     0.010290000000     0.108970000000    -0.504849   
O10      O      0.955790000000     0.065170000000     0.097880000000    -0.50386    
O11      O      0.007940000000     0.957970000000     0.091920000000    -0.646581   
O12      O      0.061720000000     0.117160000000     0.114320000000    -0.651157   
O13      O      0.125910000000     0.901360000000     0.939270000000    -0.38104    
O14      O      0.975550000000     0.206160000000     0.955780000000    -0.383946   
O15      O      0.937060000000     0.884230000000     0.010930000000    -0.387406   
O16      O      0.233680000000     0.033710000000     0.062440000000    -0.387983   
O17      O      0.146610000000     0.204610000000     0.067780000000    -0.383481   
O18      O      0.848270000000     0.054290000000     0.024190000000    -0.386098   
O19      O      0.970890000000     0.024580000000     0.860010000000    -0.384145   
O20      O      0.146420000000     0.101620000000     0.886850000000    -0.383046   
O21      O      0.898810000000     0.987880000000     0.922270000000    -0.377604   
O22      O      0.200190000000     0.128600000000     0.969500000000    -0.382481   
O23      O      0.032660000000     0.850520000000     0.017040000000    -0.384777   
O24      O      0.880950000000     0.149740000000     0.041430000000    -0.38673    
O25      O      0.051400000000     0.239240000000     0.061220000000    -0.382229   
O26      O      0.201410000000     0.937270000000     0.050740000000    -0.385027   
O27      O      0.093750000000     0.969670000000     0.869960000000    -0.37905    
O28      O      0.023750000000     0.154230000000     0.881850000000    -0.37746    
O29      O      0.073580000000     0.131210000000     0.993200000000    -0.512116   
O30      O      0.021290000000     0.970330000000     0.970660000000    -0.510857   
O31      O      0.967860000000     0.079230000000     0.976450000000    -0.655915   
O32      O      0.127830000000     0.022320000000     0.986780000000    -0.658309   
O33      O      0.060910000000     0.368890000000     0.475830000000    -0.383164   
O34      O      0.036990000000     0.704240000000     0.413640000000    -0.388524   
O35      O      0.944830000000     0.520190000000     0.381130000000    -0.382119   
O36      O      0.135300000000     0.524790000000     0.358280000000    -0.388428   
O37      O      0.212960000000     0.552940000000     0.418240000000    -0.375076   
O38      O      0.882190000000     0.527270000000     0.461480000000    -0.382191   
O39      O      0.042660000000     0.621120000000     0.353720000000    -0.370628   
O40      O      0.037360000000     0.423750000000     0.392440000000    -0.370659   
O41      O      0.107440000000     0.605140000000     0.459510000000    -0.508818   
O42      O      0.999320000000     0.480020000000     0.496560000000    -0.508051   
O43      O      0.989010000000     0.598720000000     0.473680000000    -0.650883   
O44      O      0.117930000000     0.486700000000     0.480810000000    -0.647645   
O45      O      0.057250000000     0.740230000000     0.599730000000    -0.385853   
O46      O      0.084340000000     0.408560000000     0.663930000000    -0.381372   
O47      O      0.885900000000     0.640200000000     0.537660000000    -0.381698   
O48      O      0.220310000000     0.659280000000     0.499620000000    -0.383284   
O49      O      0.235400000000     0.470280000000     0.536560000000    -0.385079   
O50      O      0.899760000000     0.446730000000     0.567100000000    -0.375488   
O51      O      0.978230000000     0.578930000000     0.714040000000    -0.378562   
O52      O      0.171460000000     0.600550000000     0.691250000000    -0.377244   
O53      O      0.900510000000     0.557750000000     0.651380000000    -0.381985   
O54      O      0.235180000000     0.584840000000     0.612680000000    -0.375925   
O55      O      0.952820000000     0.715440000000     0.520480000000    -0.386047   
O56      O      0.978740000000     0.383950000000     0.582040000000    -0.383378   
O57      O      0.170200000000     0.395040000000     0.559350000000    -0.38274    
O58      O      0.143440000000     0.726260000000     0.499030000000    -0.38018    
O59      O      0.064190000000     0.684870000000     0.685690000000    -0.377731   
O60      O      0.090160000000     0.493650000000     0.720900000000    -0.383862   
O61      O      0.129980000000     0.512230000000     0.600760000000    -0.505716   
O62      O      0.000330000000     0.622330000000     0.592620000000    -0.507419   
O63      O      0.011240000000     0.503830000000     0.614790000000    -0.650296   
O64      O      0.120740000000     0.628720000000     0.578460000000    -0.655364   
O65      O      0.694930000000     0.011140000000     0.451550000000    -0.382853   
O66      O      0.358000000000     0.022580000000     0.462780000000    -0.388092   
O67      O      0.519150000000     0.911250000000     0.396800000000    -0.379568   
O68      O      0.528870000000     0.105120000000     0.366020000000    -0.38217    
O69      O      0.535110000000     0.187720000000     0.426730000000    -0.377163   
O70      O      0.515810000000     0.851990000000     0.480620000000    -0.378612   
O71      O      0.424840000000     0.018070000000     0.385490000000    -0.372012   
O72      O      0.623510000000     0.998120000000     0.379810000000    -0.367303   
O73      O      0.473750000000     0.089420000000     0.482340000000    -0.504102   
O74      O      0.580030000000     0.960340000000     0.498630000000    -0.506328   
O75      O      0.463260000000     0.970430000000     0.500440000000    -0.648172   
O76      O      0.591710000000     0.080070000000     0.478070000000    -0.650595   
O77      O      0.366280000000     0.060290000000     0.650720000000    -0.382137   
O78      O      0.700540000000     0.032290000000     0.640480000000    -0.389168   
O79      O      0.417200000000     0.875600000000     0.578990000000    -0.383954   
O80      O      0.447040000000     0.209310000000     0.521530000000    -0.379213   
O81      O      0.641250000000     0.194870000000     0.524730000000    -0.375642   
O82      O      0.607850000000     0.856530000000     0.571050000000    -0.388393   
O83      O      0.529820000000     0.963770000000     0.733410000000    -0.377486   
O84      O      0.539310000000     0.157950000000     0.702770000000    -0.379029   
O85      O      0.520110000000     0.880870000000     0.673630000000    -0.378798   
O86      O      0.547280000000     0.217380000000     0.619450000000    -0.382077   
O87      O      0.353720000000     0.955100000000     0.571860000000    -0.377994   
O88      O      0.682770000000     0.920690000000     0.545150000000    -0.379124   
O89      O      0.703350000000     0.113750000000     0.527280000000    -0.383304   
O90      O      0.370260000000     0.143180000000     0.533480000000    -0.386959   
O91      O      0.439660000000     0.065750000000     0.721370000000    -0.380285   
O92      O      0.633640000000     0.049670000000     0.715740000000    -0.378303   
O93      O      0.596580000000     0.098590000000     0.599350000000    -0.509223   
O94      O      0.466970000000     0.989340000000     0.622550000000    -0.509124   
O95      O      0.586030000000     0.978200000000     0.618230000000    -0.652309   
O96      O      0.477730000000     0.109120000000     0.602130000000    -0.648919   
O97      O      0.384720000000     0.437260000000     0.065490000000    -0.384908   
O98      O      0.533660000000     0.740820000000     0.041100000000    -0.383059   
O99      O      0.395940000000     0.620840000000     0.150190000000    -0.374781   
O100     O      0.389170000000     0.606890000000     0.953280000000    -0.375581   
O101     O      0.454440000000     0.574810000000     0.881370000000    -0.381543   
O102     O      0.464720000000     0.596670000000     0.221780000000    -0.38466    
O103     O      0.438100000000     0.706040000000     0.043250000000    -0.387552   
O104     O      0.351180000000     0.533880000000     0.059900000000    -0.385325   
O105     O      0.516720000000     0.622330000000     0.987850000000    -0.50384    
O106     O      0.467010000000     0.521400000000     0.116960000000    -0.508987   
O107     O      0.519150000000     0.629320000000     0.108160000000    -0.65324    
O108     O      0.464770000000     0.513780000000     0.994350000000    -0.64847    
O109     O      0.705920000000     0.652790000000     0.038860000000    -0.384685   
O110     O      0.554390000000     0.349630000000     0.063320000000    -0.386983   
O111     O      0.586880000000     0.645720000000     0.215080000000    -0.381416   
O112     O      0.574050000000     0.629860000000     0.876460000000    -0.373444   
O113     O      0.506320000000     0.445130000000     0.888380000000    -0.378528   
O114     O      0.511170000000     0.467410000000     0.228550000000    -0.381832   
O115     O      0.700380000000     0.476430000000     0.148350000000    -0.38157    
O116     O      0.694820000000     0.465090000000     0.955710000000    -0.381402   
O117     O      0.639450000000     0.514950000000     0.220770000000    -0.382254   
O118     O      0.636410000000     0.505240000000     0.882010000000    -0.378869   
O119     O      0.620540000000     0.705110000000     0.138750000000    -0.382051   
O120     O      0.477620000000     0.397710000000     0.161320000000    -0.37587    
O121     O      0.474820000000     0.385980000000     0.966090000000    -0.380311   
O122     O      0.610530000000     0.696250000000     0.945420000000    -0.38049    
O123     O      0.739450000000     0.556150000000     0.046120000000    -0.384283   
O124     O      0.650120000000     0.383270000000     0.057720000000    -0.383445   
O125     O      0.571330000000     0.461320000000     0.995290000000    -0.50486    
O126     O      0.628580000000     0.576980000000     0.109200000000    -0.509916   
O127     O      0.574950000000     0.468000000000     0.116600000000    -0.658414   
O128     O      0.624820000000     0.570430000000     0.987850000000    -0.654543   
Zr1      Zr     0.028510000000     0.031090000000     0.165100000000     1.39841    
Zr2      Zr     0.094270000000     0.937160000000     0.037130000000     1.43242    
Zr3      Zr     0.988400000000     0.151450000000     0.048960000000     1.43771    
Zr4      Zr     0.935960000000     0.992440000000     0.024950000000     1.43592    
Zr5      Zr     0.146230000000     0.096300000000     0.058040000000     1.44385    
Zr6      Zr     0.053860000000     0.057070000000     0.922100000000     1.42542    
Zr7      Zr     0.046120000000     0.530980000000     0.418370000000     1.417      
Zr8      Zr     0.050760000000     0.671890000000     0.515770000000     1.44208    
Zr9      Zr     0.070260000000     0.437430000000     0.559870000000     1.43031    
Zr10     Zr     0.940780000000     0.546940000000     0.550820000000     1.4288     
Zr11     Zr     0.178170000000     0.561650000000     0.522210000000     1.42415    
Zr12     Zr     0.070980000000     0.579240000000     0.655930000000     1.4208     
Zr13     Zr     0.525640000000     0.015640000000     0.428930000000     1.41298    
Zr14     Zr     0.412010000000     0.044500000000     0.553500000000     1.43446    
Zr15     Zr     0.646560000000     0.023740000000     0.546750000000     1.43801    
Zr16     Zr     0.518050000000     0.915320000000     0.569770000000     1.43159    
Zr17     Zr     0.540060000000     0.154020000000     0.530910000000     1.4198     
Zr18     Zr     0.534590000000     0.053200000000     0.670250000000     1.418      
Zr19     Zr     0.437900000000     0.597490000000     0.051270000000     1.42488    
Zr20     Zr     0.598040000000     0.653680000000     0.044920000000     1.43176    
Zr21     Zr     0.492860000000     0.437780000000     0.060290000000     1.43189    
Zr22     Zr     0.549710000000     0.552580000000     0.172370000000     1.43334    
Zr23     Zr     0.544030000000     0.539080000000     0.930440000000     1.42081    
Zr24     Zr     0.652500000000     0.492320000000     0.052070000000     1.43205    


