data_structure

_audit_creation_method RASPA-1.0
_audit_creation_date 2023-5-19
_audit_author_name 'Poobodin Mano'

_cell_length_a    22.2508
_cell_length_b    25.4076
_cell_length_c    21.2816
_cell_angle_alpha 90
_cell_angle_beta  90
_cell_angle_gamma 90
_cell_volume      12031.3

_symmetry_cell_setting          triclinic
_symmetry_space_group_name_Hall 'P 1'
_symmetry_space_group_name_H-M  'P 1'
_symmetry_Int_Tables_number     1

_symmetry_equiv_pos_as_xyz 'x,y,z'

loop_
_atom_site_label
_atom_site_type_symbol
_atom_site_fract_x
_atom_site_fract_y
_atom_site_fract_z
_atom_site_charge
C1       C      0.162690000000     0.126690000000     0.291390000000     0.405445   
C2       C      0.106750000000     0.866310000000     0.273070000000     0.411416   
C3       C      0.984660000000     0.021260000000     0.324670000000     0.405917   
C4       C      0.273710000000     0.968940000000     0.235700000000     0.410296   
C5       C      0.020290000000     0.890790000000     0.967480000000     0.399723   
C6       C      0.086470000000     0.157080000000     0.984040000000     0.403441   
C7       C      0.910000000000     0.909210000000     0.166560000000     0.404146   
C8       C      0.200170000000     0.851920000000     0.082680000000     0.403361   
C9       C      0.266740000000     0.115030000000     0.089690000000     0.402791   
C10      C      0.977290000000     0.166940000000     0.180390000000     0.404239   
C11      C      0.908130000000     0.051180000000     0.016720000000     0.406129   
C12      C      0.196510000000     0.998120000000     0.930230000000     0.409719   
C13      C      0.061280000000     0.402470000000     0.435560000000     0.408337   
C14      C      0.012670000000     0.660260000000     0.479170000000     0.40538    
C15      C      0.902510000000     0.498950000000     0.496110000000     0.402677   
C16      C      0.196360000000     0.558030000000     0.423360000000     0.401144   
C17      C      0.100260000000     0.643990000000     0.784310000000     0.400533   
C18      C      0.149480000000     0.375980000000     0.740030000000     0.40323    
C19      C      0.916260000000     0.627010000000     0.676770000000     0.405152   
C20      C      0.211290000000     0.675290000000     0.602090000000     0.394752   
C21      C      0.249750000000     0.407360000000     0.555920000000     0.402906   
C22      C      0.958780000000     0.367550000000     0.636400000000     0.407907   
C23      C      0.984120000000     0.480200000000     0.807350000000     0.408245   
C24      C      0.269460000000     0.527050000000     0.732910000000     0.408413   
C25      C      0.656350000000     0.993640000000     0.405590000000     0.408055   
C26      C      0.391210000000     0.065360000000     0.543550000000     0.408851   
C27      C      0.486560000000     0.899460000000     0.480900000000     0.405314   
C28      C      0.555190000000     0.157430000000     0.466600000000     0.410239   
C29      C      0.520090000000     0.044980000000     0.830310000000     0.406203   
C30      C      0.787460000000     0.979450000000     0.693800000000     0.405859   
C31      C      0.417320000000     0.921360000000     0.688930000000     0.396473   
C32      C      0.497870000000     0.186100000000     0.672980000000     0.40027    
C33      C      0.761060000000     0.114590000000     0.534880000000     0.405125   
C34      C      0.687960000000     0.858580000000     0.558520000000     0.406669   
C35      C      0.613880000000     0.884880000000     0.774420000000     0.405679   
C36      C      0.690330000000     0.143480000000     0.755770000000     0.401258   
C37      C      0.475240000000     0.347710000000     0.154210000000     0.402806   
C38      C      0.398010000000     0.609020000000     0.145070000000     0.402069   
C39      C      0.478470000000     0.488590000000     0.301860000000     0.401597   
C40      C      0.395210000000     0.460760000000     0.994960000000     0.409181   
C41      C      0.684580000000     0.668850000000     0.050270000000     0.406071   
C42      C      0.760950000000     0.411900000000     0.058320000000     0.401821   
C43      C      0.584600000000     0.649980000000     0.255190000000     0.407912   
C44      C      0.492370000000     0.624730000000     0.948910000000     0.405071   
C45      C      0.581070000000     0.367350000000     0.952020000000     0.402132   
C46      C      0.669310000000     0.396610000000     0.258590000000     0.404306   
C47      C      0.760360000000     0.561940000000     0.206330000000     0.403184   
C48      C      0.668320000000     0.533420000000     0.899400000000     0.407445   
C49      C      0.617720000000     0.250330000000     0.373840000000    -0.0788887  
C50      C      0.638410000000     0.306890000000     0.363780000000    -0.0787091  
C51      C      0.685690000000     0.311300000000     0.311840000000     0.00741682 
C52      C      0.568760000000     0.247980000000     0.424300000000     0.00890621 
C53      C      0.499170000000     0.801490000000     0.369800000000    -0.0794206  
C54      C      0.523300000000     0.745560000000     0.362880000000    -0.0797213  
C55      C      0.554260000000     0.737320000000     0.299070000000     0.00722568 
C56      C      0.470860000000     0.810590000000     0.434690000000     0.00709195 
C57      C      0.532050000000     0.724510000000     0.859600000000    -0.0775161  
C58      C      0.546930000000     0.783330000000     0.856490000000    -0.0803764  
C59      C      0.601430000000     0.792950000000     0.813910000000     0.00966088 
C60      C      0.477350000000     0.713090000000     0.901170000000     0.00628438 
C61      C      0.659170000000     0.259400000000     0.890210000000    -0.0757641  
C62      C      0.657110000000     0.259310000000     0.817730000000    -0.0741274  
C63      C      0.714260000000     0.235500000000     0.788390000000     0.00607259 
C64      C      0.598480000000     0.273660000000     0.920320000000     0.00700798 
C65      C      0.882570000000     0.263530000000     0.570910000000    -0.0787176  
C66      C      0.872520000000     0.204930000000     0.558880000000    -0.0796421  
C67      C      0.819900000000     0.196270000000     0.513740000000     0.00902106 
C68      C      0.931810000000     0.273170000000     0.620070000000     0.00851292 
C69      C      0.780300000000     0.765890000000     0.616670000000    -0.0786253  
C70      C      0.793080000000     0.711950000000     0.645600000000    -0.0802673  
C71      C      0.855540000000     0.709610000000     0.676510000000     0.0056071  
C72      C      0.720070000000     0.766930000000     0.581060000000     0.00513633 
C73      C      0.348970000000     0.318510000000     0.617370000000    -0.0796423  
C74      C      0.411120000000     0.303470000000     0.642700000000    -0.0797856  
C75      C      0.411770000000     0.249230000000     0.675710000000     0.00487621 
C76      C      0.350380000000     0.369830000000     0.578170000000     0.0054286  
C77      C      0.338720000000     0.749760000000     0.658000000000    -0.0787392  
C78      C      0.338110000000     0.810560000000     0.652920000000    -0.0776134  
C79      C      0.365530000000     0.836120000000     0.712140000000     0.00648084 
C80      C      0.311760000000     0.721050000000     0.600430000000     0.00432671 
C81      C      0.848870000000     0.560600000000     0.342470000000    -0.0727071  
C82      C      0.815080000000     0.509070000000     0.355670000000    -0.0729211  
C83      C      0.852000000000     0.471320000000     0.396690000000     0.00554318 
C84      C      0.812300000000     0.598270000000     0.300960000000     0.00585272 
C85      C      0.331560000000     0.545590000000     0.342010000000    -0.072729   
C86      C      0.346890000000     0.503970000000     0.391940000000    -0.072116   
C87      C      0.390020000000     0.461610000000     0.366910000000     0.00483346 
C88      C      0.288970000000     0.588290000000     0.367340000000     0.0058383  
C89      C      0.392180000000     0.450890000000     0.852160000000    -0.0738342  
C90      C      0.379870000000     0.445120000000     0.780800000000    -0.0787448  
C91      C      0.374780000000     0.498440000000     0.746550000000     0.00738721 
C92      C      0.337320000000     0.437630000000     0.894270000000     0.00783441 
C93      C      0.857170000000     0.509110000000     0.856720000000    -0.0782628  
C94      C      0.790940000000     0.499520000000     0.843170000000    -0.0763421  
C95      C      0.757400000000     0.551650000000     0.834460000000     0.0117899  
C96      C      0.890850000000     0.456850000000     0.863140000000     0.013031   
C97      C      0.774190000000     0.766660000000     0.105970000000    -0.0785207  
C98      C      0.784790000000     0.822290000000     0.131050000000    -0.0805927  
C99      C      0.847640000000     0.827570000000     0.160460000000     0.00712173 
C100     C      0.714650000000     0.761660000000     0.069650000000     0.00659957 
C101     C      0.892400000000     0.267740000000     0.121140000000    -0.0785185  
C102     C      0.882940000000     0.324850000000     0.100030000000    -0.0805922  
C103     C      0.824270000000     0.330540000000     0.062310000000     0.00593114 
C104     C      0.947730000000     0.260670000000     0.163840000000     0.00457438 
C105     C      0.285300000000     0.719330000000     0.156630000000    -0.0771961  
C106     C      0.258760000000     0.713740000000     0.090090000000    -0.0754336  
C107     C      0.208550000000     0.754130000000     0.077860000000     0.00520366 
C108     C      0.348250000000     0.694990000000     0.162040000000     0.00608511 
C109     C      0.380150000000     0.225070000000     0.081620000000    -0.0778347  
C110     C      0.414120000000     0.211720000000     0.142760000000    -0.0755567  
C111     C      0.466600000000     0.249840000000     0.154700000000     0.00525132 
C112     C      0.316420000000     0.201910000000     0.080550000000     0.00655948 
C113     C      0.857880000000     0.018030000000     0.814160000000    -0.0787553  
C114     C      0.855700000000     0.013470000000     0.885930000000    -0.0820413  
C115     C      0.854030000000     0.067960000000     0.916990000000     0.0123484  
C116     C      0.856410000000     0.963420000000     0.783080000000     0.0124309  
C117     C      0.329910000000     0.028230000000     0.890950000000    -0.0789449  
C118     C      0.396710000000     0.013480000000     0.891100000000    -0.0820615  
C119     C      0.436670000000     0.061540000000     0.904730000000     0.0121208  
C120     C      0.290860000000     0.981050000000     0.871880000000     0.0125362  
C121     C      0.326400000000     0.017190000000     0.358750000000    -0.0782604  
C122     C      0.319590000000     0.019400000000     0.430180000000    -0.0784657  
C123     C      0.321680000000     0.076460000000     0.454120000000     0.0116537  
C124     C      0.329040000000     0.960060000000     0.335530000000     0.0124811  
C125     C      0.783930000000     0.015720000000     0.348690000000    -0.0808517  
C126     C      0.848420000000     0.994980000000     0.356470000000    -0.0740802  
C127     C      0.890080000000     0.038140000000     0.382510000000     0.00853468 
C128     C      0.739250000000     0.971310000000     0.332640000000     0.0122535  
C129     C      0.159930000000     0.275530000000     0.866910000000    -0.0770359  
C130     C      0.097470000000     0.253120000000     0.849380000000    -0.0771165  
C131     C      0.086100000000     0.198020000000     0.877410000000     0.00682907 
C132     C      0.168840000000     0.332200000000     0.842930000000     0.00627001 
C133     C      0.067760000000     0.826530000000     0.835820000000    -0.0771476  
C134     C      0.058490000000     0.766420000000     0.843270000000    -0.077713   
C135     C      0.114960000000     0.735880000000     0.823010000000     0.00730518 
C136     C      0.012960000000     0.859760000000     0.855870000000     0.00563918 
C137     C      0.018510000000     0.777250000000     0.388150000000    -0.0729574  
C138     C      0.073990000000     0.747540000000     0.362780000000    -0.0768789  
C139     C      0.097150000000     0.771840000000     0.301750000000     0.00850857 
C140     C      0.996280000000     0.753870000000     0.450340000000     0.00479449 
C141     C      0.121000000000     0.234700000000     0.361220000000    -0.0794139  
C142     C      0.117000000000     0.294820000000     0.363130000000    -0.0784588  
C143     C      0.056180000000     0.312460000000     0.389300000000     0.00910161 
C144     C      0.181460000000     0.215930000000     0.335260000000     0.00978688 
H1       H      0.012370000000     0.944090000000     0.235790000000     0.209321   
H2       H      0.211900000000     0.061650000000     0.193860000000     0.207543   
H3       H      0.006510000000     0.106080000000     0.069610000000     0.208226   
H4       H      0.130450000000     0.928980000000     0.014120000000     0.20708    
H5       H      0.967320000000     0.586380000000     0.559640000000     0.207728   
H6       H      0.158590000000     0.466550000000     0.492510000000     0.206929   
H7       H      0.038920000000     0.426840000000     0.708430000000     0.21221    
H8       H      0.175970000000     0.600470000000     0.689680000000     0.207705   
H9       H      0.457330000000     0.970470000000     0.580070000000     0.207993   
H10      H      0.648520000000     0.078680000000     0.492490000000     0.208788   
H11      H      0.679930000000     0.924960000000     0.666670000000     0.209201   
H12      H      0.572250000000     0.107890000000     0.731340000000     0.207624   
H13      H      0.501270000000     0.571260000000     0.213210000000     0.206536   
H14      H      0.497380000000     0.410370000000     0.046190000000     0.208028   
H15      H      0.705010000000     0.462560000000     0.162320000000     0.209092   
H16      H      0.610150000000     0.592820000000     0.988860000000     0.21096    
H17      H      0.532840000000     0.276770000000     0.412480000000     0.0264636  
H18      H      0.588020000000     0.258390000000     0.470900000000     0.0364141  
H19      H      0.727490000000     0.291330000000     0.327640000000     0.0243805  
H20      H      0.669240000000     0.292330000000     0.267970000000     0.0366691  
H21      H      0.657400000000     0.322570000000     0.408400000000     0.0426428  
H22      H      0.598910000000     0.331460000000     0.350670000000     0.0496556  
H23      H      0.719750000000     0.386590000000     0.339280000000     0.0940532  
H24      H      0.599610000000     0.234640000000     0.328820000000     0.0447827  
H25      H      0.656430000000     0.225490000000     0.388520000000     0.0450978  
H26      H      0.514660000000     0.185990000000     0.385980000000     0.0974921  
H27      H      0.501680000000     0.796780000000     0.472420000000     0.0376325  
H28      H      0.428210000000     0.787940000000     0.437480000000     0.0254021  
H29      H      0.520360000000     0.738250000000     0.260670000000     0.0351663  
H30      H      0.587290000000     0.769440000000     0.291010000000     0.0294133  
H31      H      0.485850000000     0.716840000000     0.367730000000     0.0431436  
H32      H      0.556150000000     0.738260000000     0.401340000000     0.0443601  
H33      H      0.610840000000     0.678530000000     0.341450000000     0.0975797  
H34      H      0.536900000000     0.829780000000     0.363430000000     0.0491385  
H35      H      0.465090000000     0.809180000000     0.332660000000     0.0418763  
H36      H      0.431440000000     0.883350000000     0.405270000000     0.0944962  
H37      H      0.437100000000     0.731640000000     0.879520000000     0.025171   
H38      H      0.484280000000     0.729920000000     0.948870000000     0.0373045  
H39      H      0.638910000000     0.767200000000     0.829770000000     0.0242404  
H40      H      0.590030000000     0.782460000000     0.764590000000     0.0353233  
H41      H      0.556970000000     0.797870000000     0.904680000000     0.04626    
H42      H      0.507700000000     0.805500000000     0.837790000000     0.0486522  
H43      H      0.643160000000     0.858170000000     0.861200000000     0.0970887  
H44      H      0.523030000000     0.709580000000     0.811350000000     0.0422311  
H45      H      0.571520000000     0.702900000000     0.878770000000     0.0457264  
H46      H      0.450460000000     0.638270000000     0.863470000000     0.0965537  
H47      H      0.601030000000     0.265600000000     0.971590000000     0.035245   
H48      H      0.563230000000     0.247540000000     0.900360000000     0.024819   
H49      H      0.715540000000     0.245830000000     0.737630000000     0.0359995  
H50      H      0.754460000000     0.253060000000     0.811270000000     0.0246499  
H51      H      0.652520000000     0.300540000000     0.800950000000     0.0419689  
H52      H      0.617240000000     0.236970000000     0.800860000000     0.0481657  
H53      H      0.732490000000     0.163780000000     0.839290000000     0.0939651  
H54      H      0.671750000000     0.219540000000     0.907230000000     0.0418991  
H55      H      0.694180000000     0.287400000000     0.906740000000     0.0487347  
H56      H      0.567470000000     0.337730000000     0.862340000000     0.0949567  
H57      H      0.976880000000     0.268730000000     0.598140000000     0.0363532  
H58      H      0.927370000000     0.243990000000     0.658730000000     0.0259546  
H59      H      0.779420000000     0.217860000000     0.530350000000     0.0356501  
H60      H      0.832790000000     0.211700000000     0.466740000000     0.0236317  
H61      H      0.862230000000     0.184870000000     0.604110000000     0.0495834  
H62      H      0.914060000000     0.187270000000     0.538820000000     0.0430684  
H63      H      0.841160000000     0.117590000000     0.485350000000     0.0945815  
H64      H      0.895120000000     0.283650000000     0.526370000000     0.0462328  
H65      H      0.839460000000     0.280820000000     0.587670000000     0.0455939  
H66      H      0.882260000000     0.331760000000     0.670650000000     0.0965133  
H67      H      0.682080000000     0.765440000000     0.614990000000     0.0352915  
H68      H      0.717540000000     0.732190000000     0.549410000000     0.0267645  
H69      H      0.890450000000     0.724340000000     0.643460000000     0.0359844  
H70      H      0.855390000000     0.735000000000     0.719030000000     0.0281059  
H71      H      0.790980000000     0.681530000000     0.608040000000     0.0446554  
H72      H      0.758010000000     0.702770000000     0.681210000000     0.0411981  
H73      H      0.832430000000     0.634900000000     0.717150000000     0.0947352  
H74      H      0.779600000000     0.796360000000     0.654190000000     0.0435233  
H75      H      0.817360000000     0.775610000000     0.583510000000     0.0437103  
H76      H      0.752270000000     0.817870000000     0.508530000000     0.0967679  
H77      H      0.388710000000     0.368200000000     0.544720000000     0.027049   
H78      H      0.356300000000     0.404400000000     0.609690000000     0.0346991  
H79      H      0.387630000000     0.252380000000     0.721260000000     0.0288526  
H80      H      0.388700000000     0.219160000000     0.646300000000     0.0372704  
H81      H      0.426620000000     0.334240000000     0.676170000000     0.0395874  
H82      H      0.443310000000     0.302170000000     0.602700000000     0.0464806  
H83      H      0.504790000000     0.264540000000     0.695420000000     0.0942665  
H84      H      0.332530000000     0.285620000000     0.587450000000     0.0451852  
H85      H      0.317050000000     0.323390000000     0.657160000000     0.0467619  
H86      H      0.283200000000     0.339860000000     0.516080000000     0.0946221  
H87      H      0.330690000000     0.680600000000     0.598360000000     0.036292   
H88      H      0.325600000000     0.741840000000     0.556820000000     0.0279023  
H89      H      0.336900000000     0.825500000000     0.753050000000     0.0235108  
H90      H      0.411290000000     0.819850000000     0.720360000000     0.0362467  
H91      H      0.291190000000     0.824720000000     0.647080000000     0.0438997  
H92      H      0.364550000000     0.822820000000     0.611060000000     0.0503006  
H93      H      0.329730000000     0.914860000000     0.721970000000     0.0934785  
H94      H      0.386200000000     0.736770000000     0.663150000000     0.0401941  
H95      H      0.314360000000     0.737160000000     0.701100000000     0.04517    
H96      H      0.223910000000     0.755870000000     0.609090000000     0.0960577  
H97      H      0.835310000000     0.637100000000     0.302230000000     0.0237206  
H98      H      0.766490000000     0.603790000000     0.320830000000     0.0395489  
H99      H      0.830110000000     0.432070000000     0.393680000000     0.024349   
H100     H      0.898250000000     0.467030000000     0.377510000000     0.0402017  
H101     H      0.805500000000     0.489090000000     0.310270000000     0.0485305  
H102     H      0.771320000000     0.517500000000     0.378860000000     0.0485435  
H103     H      0.811470000000     0.482990000000     0.487640000000     0.0955979  
H104     H      0.858350000000     0.580620000000     0.387880000000     0.0467316  
H105     H      0.892680000000     0.552090000000     0.319430000000     0.0470105  
H106     H      0.849220000000     0.586690000000     0.208220000000     0.0958187  
H107     H      0.291190000000     0.622050000000     0.334170000000     0.0236188  
H108     H      0.304680000000     0.602580000000     0.413940000000     0.0367673  
H109     H      0.391870000000     0.429810000000     0.402720000000     0.0265736  
H110     H      0.371810000000     0.444180000000     0.322920000000     0.0388862  
H111     H      0.304730000000     0.484260000000     0.407200000000     0.0475222  
H112     H      0.367210000000     0.523160000000     0.433840000000     0.0465601  
H113     H      0.476090000000     0.489950000000     0.399370000000     0.0955512  
H114     H      0.373840000000     0.565030000000     0.326590000000     0.0455126  
H115     H      0.311090000000     0.526490000000     0.300130000000     0.048524   
H116     H      0.202540000000     0.569830000000     0.327090000000     0.095039   
H117     H      0.324880000000     0.395730000000     0.886720000000     0.025415   
H118     H      0.297610000000     0.460520000000     0.878450000000     0.032334   
H119     H      0.414810000000     0.522900000000     0.757660000000     0.0271455  
H120     H      0.374190000000     0.491280000000     0.694990000000     0.0362691  
H121     H      0.338770000000     0.421290000000     0.771950000000     0.0475712  
H122     H      0.417920000000     0.423240000000     0.759190000000     0.0369808  
H123     H      0.317500000000     0.534910000000     0.815240000000     0.0997006  
H124     H      0.429180000000     0.423250000000     0.864280000000     0.0529485  
H125     H      0.407430000000     0.491720000000     0.861920000000     0.0594167  
H126     H      0.306100000000     0.438930000000     0.989670000000     0.0959096  
H127     H      0.878220000000     0.429820000000     0.824130000000     0.0336635  
H128     H      0.878770000000     0.437990000000     0.908580000000     0.0231257  
H129     H      0.772870000000     0.581160000000     0.869610000000     0.0346116  
H130     H      0.766380000000     0.567250000000     0.786550000000     0.0225497  
H131     H      0.771720000000     0.476540000000     0.882850000000     0.056551   
H132     H      0.785760000000     0.475690000000     0.799640000000     0.0452166  
H133     H      0.666570000000     0.539630000000     0.801920000000     0.09675    
H134     H      0.876150000000     0.533300000000     0.818010000000     0.0592209  
H135     H      0.862190000000     0.531690000000     0.901210000000     0.0478917  
H136     H      0.979630000000     0.464130000000     0.903110000000     0.0972798  
H137     H      0.710900000000     0.794710000000     0.035640000000     0.0268328  
H138     H      0.676050000000     0.763180000000     0.102820000000     0.0373332  
H139     H      0.849750000000     0.802970000000     0.203580000000     0.0269957  
H140     H      0.882490000000     0.813340000000     0.127040000000     0.0374838  
H141     H      0.749920000000     0.831880000000     0.166710000000     0.0424699  
H142     H      0.780970000000     0.850940000000     0.091690000000     0.0469753  
H143     H      0.822060000000     0.903430000000     0.196910000000     0.0950459  
H144     H      0.812090000000     0.756320000000     0.074130000000     0.0447512  
H145     H      0.774210000000     0.738160000000     0.145660000000     0.0476785  
H146     H      0.752560000000     0.707520000000     0.003680000000     0.0961231  
H147     H      0.947410000000     0.291750000000     0.200610000000     0.0270559  
H148     H      0.989630000000     0.264190000000     0.135660000000     0.0360349  
H149     H      0.829010000000     0.308350000000     0.017570000000     0.0267648  
H150     H      0.786190000000     0.313310000000     0.089190000000     0.0372114  
H151     H      0.921670000000     0.337630000000     0.070720000000     0.0416491  
H152     H      0.880390000000     0.350750000000     0.142100000000     0.0453448  
H153     H      0.849500000000     0.407460000000     0.028730000000     0.0947826  
H154     H      0.851530000000     0.254860000000     0.147090000000     0.0437143  
H155     H      0.897390000000     0.241960000000     0.079220000000     0.0434705  
H156     H      0.903880000000     0.202840000000     0.220910000000     0.0963089  
H157     H      0.367460000000     0.706020000000     0.208430000000     0.0270953  
H158     H      0.378320000000     0.712360000000     0.125770000000     0.0376775  
H159     H      0.185630000000     0.743840000000     0.033120000000     0.0286244  
H160     H      0.174210000000     0.752010000000     0.115800000000     0.0378589  
H161     H      0.240080000000     0.673410000000     0.084710000000     0.0427987  
H162     H      0.294290000000     0.718700000000     0.053780000000     0.0463488  
H163     H      0.278110000000     0.812150000000     0.059280000000     0.0970777  
H164     H      0.289520000000     0.761700000000     0.168990000000     0.0473321  
H165     H      0.254530000000     0.701080000000     0.191570000000     0.0421072  
H166     H      0.308160000000     0.617040000000     0.169820000000     0.0956199  
H167     H      0.292550000000     0.217000000000     0.038340000000     0.0304641  
H168     H      0.290670000000     0.215960000000     0.122130000000     0.0349429  
H169     H      0.492320000000     0.235940000000     0.196260000000     0.0287384  
H170     H      0.497790000000     0.249710000000     0.113820000000     0.0344928  
H171     H      0.432000000000     0.170960000000     0.139470000000     0.0401579  
H172     H      0.383170000000     0.213080000000     0.183800000000     0.0439513  
H173     H      0.400700000000     0.307130000000     0.185730000000     0.0969623  
H174     H      0.375610000000     0.268420000000     0.076460000000     0.0448906  
H175     H      0.406110000000     0.210620000000     0.040430000000     0.0417178  
H176     H      0.355890000000     0.124780000000     0.063740000000     0.0950918  
H177     H      0.821310000000     0.938650000000     0.805780000000     0.033156   
H178     H      0.900730000000     0.943950000000     0.789650000000     0.0230365  
H179     H      0.892770000000     0.091810000000     0.900130000000     0.032431   
H180     H      0.811650000000     0.088300000000     0.903590000000     0.0234913  
H181     H      0.895720000000     0.991060000000     0.902090000000     0.0589096  
H182     H      0.814790000000     0.991360000000     0.900300000000     0.0496738  
H183     H      0.817050000000     0.068900000000     0.011020000000     0.0965314  
H184     H      0.819110000000     0.042190000000     0.798360000000     0.05864    
H185     H      0.899710000000     0.038680000000     0.799640000000     0.0448104  
H186     H      0.877940000000     0.960460000000     0.683940000000     0.0964987  
H187     H      0.300360000000     0.947270000000     0.903680000000     0.033417   
H188     H      0.302140000000     0.969360000000     0.822920000000     0.0241811  
H189     H      0.421690000000     0.095570000000     0.875760000000     0.0327615  
H190     H      0.432450000000     0.072320000000     0.955190000000     0.0220906  
H191     H      0.408220000000     0.996250000000     0.844640000000     0.0598674  
H192     H      0.405220000000     0.982910000000     0.927430000000     0.047524   
H193     H      0.529150000000     0.043110000000     0.927630000000     0.0964433  
H194     H      0.317160000000     0.042270000000     0.938590000000     0.0572086  
H195     H      0.321910000000     0.060760000000     0.856970000000     0.0471547  
H196     H      0.204500000000     0.002710000000     0.833050000000     0.0955057  
H197     H      0.291210000000     0.937100000000     0.356030000000     0.0359607  
H198     H      0.372130000000     0.942210000000     0.350780000000     0.0235195  
H199     H      0.356600000000     0.099160000000     0.428240000000     0.0358607  
H200     H      0.277360000000     0.095440000000     0.445880000000     0.0224038  
H201     H      0.356030000000     0.995500000000     0.451610000000     0.0559982  
H202     H      0.276040000000     0.001440000000     0.444270000000     0.0445065  
H203     H      0.301220000000     0.086410000000     0.552810000000     0.097031   
H204     H      0.287990000000     0.038520000000     0.337170000000     0.0538587  
H205     H      0.368550000000     0.037400000000     0.344310000000     0.0461779  
H206     H      0.364940000000     0.951760000000     0.241590000000     0.0978186  
H207     H      0.749830000000     0.935650000000     0.360950000000     0.0354694  
H208     H      0.743710000000     0.961020000000     0.282080000000     0.0225907  
H209     H      0.883620000000     0.075120000000     0.355250000000     0.0355013  
H210     H      0.877930000000     0.045570000000     0.432300000000     0.0252847  
H211     H      0.864550000000     0.980570000000     0.310180000000     0.05569    
H212     H      0.848980000000     0.961250000000     0.389800000000     0.0458279  
H213     H      0.975250000000     0.012720000000     0.421330000000     0.0962154  
H214     H      0.770600000000     0.035960000000     0.392780000000     0.0566228  
H215     H      0.782780000000     0.045630000000     0.310560000000     0.0450507  
H216     H      0.648330000000     0.994460000000     0.308090000000     0.0966866  
H217     H      0.213280000000     0.346820000000     0.859130000000     0.0278096  
H218     H      0.133950000000     0.358600000000     0.863200000000     0.0343429  
H219     H      0.042070000000     0.182960000000     0.860530000000     0.0304821  
H220     H      0.121030000000     0.169860000000     0.861040000000     0.0340551  
H221     H      0.093590000000     0.250160000000     0.797440000000     0.0433953  
H222     H      0.061710000000     0.280370000000     0.865980000000     0.0440478  
H223     H      0.087710000000     0.236760000000     0.968060000000     0.0968067  
H224     H      0.165840000000     0.276120000000     0.918690000000     0.0425481  
H225     H      0.195650000000     0.249740000000     0.847200000000     0.0431347  
H226     H      0.177340000000     0.299030000000     0.749820000000     0.0965752  
H227     H      0.972630000000     0.845200000000     0.830430000000     0.0253289  
H228     H      0.020770000000     0.901450000000     0.842270000000     0.0347933  
H229     H      0.125660000000     0.745310000000     0.773190000000     0.0363099  
H230     H      0.153170000000     0.749460000000     0.852550000000     0.0243616  
H231     H      0.019740000000     0.753600000000     0.814060000000     0.0516748  
H232     H      0.048820000000     0.756720000000     0.893130000000     0.0474075  
H233     H      0.116450000000     0.664050000000     0.877380000000     0.0967645  
H234     H      0.107440000000     0.839200000000     0.863800000000     0.0447996  
H235     H      0.077490000000     0.835290000000     0.785640000000     0.0396603  
H236     H      0.987080000000     0.818540000000     0.939590000000     0.0964725  
H237     H      0.952910000000     0.772900000000     0.462720000000     0.0258494  
H238     H      0.029290000000     0.762560000000     0.488210000000     0.0376188  
H239     H      0.136360000000     0.748530000000     0.285260000000     0.0275371  
H240     H      0.061720000000     0.769690000000     0.264950000000     0.0356142  
H241     H      0.062410000000     0.705840000000     0.352720000000     0.0471029  
H242     H      0.110400000000     0.747780000000     0.398630000000     0.0475028  
H243     H      0.139150000000     0.833920000000     0.355350000000     0.0984836  
H244     H      0.029500000000     0.819380000000     0.396200000000     0.0440178  
H245     H      0.981690000000     0.775370000000     0.352850000000     0.0415289  
H246     H      0.963940000000     0.685000000000     0.402030000000     0.0942279  
H247     H      0.218140000000     0.231970000000     0.365150000000     0.0234092  
H248     H      0.187470000000     0.230340000000     0.286300000000     0.0352524  
H249     H      0.019950000000     0.295240000000     0.359730000000     0.0258951  
H250     H      0.050690000000     0.297940000000     0.438290000000     0.037201   
H251     H      0.122690000000     0.310730000000     0.314780000000     0.0449688  
H252     H      0.153480000000     0.310820000000     0.393360000000     0.0479813  
H253     H      0.039660000000     0.386180000000     0.342780000000     0.0968635  
H254     H      0.115030000000     0.218850000000     0.409580000000     0.0455062  
H255     H      0.084300000000     0.218890000000     0.331110000000     0.0529746  
H256     H      0.196010000000     0.141420000000     0.380670000000     0.094655   
N1       N      0.698000000000     0.367110000000     0.302360000000    -0.218975   
N2       N      0.542340000000     0.195490000000     0.424100000000    -0.219582   
N3       N      0.586930000000     0.687450000000     0.300430000000    -0.218878   
N4       N      0.457440000000     0.866620000000     0.440950000000    -0.219013   
N5       N      0.621120000000     0.847680000000     0.819610000000    -0.218624   
N6       N      0.468450000000     0.656050000000     0.903640000000    -0.217722   
N7       N      0.715170000000     0.178170000000     0.796960000000    -0.216668   
N8       N      0.582200000000     0.328670000000     0.907750000000    -0.216308   
N9       N      0.808540000000     0.139860000000     0.508540000000    -0.219896   
N10      N      0.922790000000     0.325470000000     0.646790000000    -0.219409   
N11      N      0.867660000000     0.655290000000     0.695420000000    -0.217835   
N12      N      0.718310000000     0.814390000000     0.542340000000    -0.21819    
N13      N      0.474220000000     0.233860000000     0.687610000000    -0.216136   
N14      N      0.294840000000     0.373600000000     0.541580000000    -0.217604   
N15      N      0.367570000000     0.893940000000     0.706990000000    -0.216316   
N16      N      0.245800000000     0.719730000000     0.603640000000    -0.214493   
N17      N      0.851810000000     0.487620000000     0.463010000000    -0.21591    
N18      N      0.810690000000     0.580270000000     0.235310000000    -0.216283   
N19      N      0.451180000000     0.482510000000     0.358650000000    -0.216241   
N20      N      0.226410000000     0.569740000000     0.369440000000    -0.216583   
N21      N      0.320540000000     0.525810000000     0.767440000000    -0.218442   
N22      N      0.344670000000     0.446140000000     0.962940000000    -0.21748    
N23      N      0.693230000000     0.542360000000     0.842270000000    -0.220753   
N24      N      0.955350000000     0.466700000000     0.861140000000    -0.220639   
N25      N      0.858240000000     0.882500000000     0.177770000000    -0.218261   
N26      N      0.716100000000     0.712420000000     0.034220000000    -0.218432   
N27      N      0.813480000000     0.386060000000     0.047380000000    -0.217456   
N28      N      0.943140000000     0.209440000000     0.194960000000    -0.217644   
N29      N      0.232990000000     0.807670000000     0.072100000000    -0.21663    
N30      N      0.347450000000     0.637240000000     0.157670000000    -0.216438   
N31      N      0.444210000000     0.303100000000     0.167640000000    -0.217212   
N32      N      0.316710000000     0.144200000000     0.078000000000    -0.217068   
N33      N      0.856600000000     0.062740000000     0.985490000000    -0.220164   
N34      N      0.843250000000     0.968030000000     0.715840000000    -0.219633   
N35      N      0.499580000000     0.049490000000     0.890200000000    -0.219795   
N36      N      0.227080000000     0.995040000000     0.875160000000    -0.21939    
N37      N      0.335680000000     0.077220000000     0.521240000000    -0.219769   
N38      N      0.325490000000     0.958760000000     0.266970000000    -0.220252   
N39      N      0.953310000000     0.022120000000     0.379350000000    -0.219434   
N40      N      0.677220000000     0.987670000000     0.345980000000    -0.219337   
N41      N      0.085400000000     0.199950000000     0.946100000000    -0.217329   
N42      N      0.167490000000     0.333760000000     0.774230000000    -0.217601   
N43      N      0.107690000000     0.678770000000     0.832410000000    -0.216201   
N44      N      0.002910000000     0.854910000000     0.923620000000    -0.215991   
N45      N      0.116740000000     0.825900000000     0.313160000000    -0.219108   
N46      N      0.986450000000     0.697370000000     0.442650000000    -0.218611   
N47      N      0.051740000000     0.369800000000     0.386090000000    -0.21889    
N48      N      0.183250000000     0.158460000000     0.337950000000    -0.219451   
O1       O      0.149500000000     0.147460000000     0.237520000000    -0.381966   
O2       O      0.083410000000     0.856380000000     0.218590000000    -0.380233   
O3       O      0.041060000000     0.009210000000     0.327310000000    -0.384538   
O4       O      0.225780000000     0.977420000000     0.268530000000    -0.379431   
O5       O      0.276340000000     0.970830000000     0.175250000000    -0.385462   
O6       O      0.955740000000     0.031580000000     0.273550000000    -0.380203   
O7       O      0.122320000000     0.912310000000     0.292490000000    -0.385675   
O8       O      0.157470000000     0.077380000000     0.304640000000    -0.389991   
O9       O      0.148390000000     0.943280000000     0.168520000000    -0.508455   
O10      O      0.061270000000     0.068270000000     0.210660000000    -0.512904   
O11      O      0.034710000000     0.963490000000     0.204550000000    -0.655594   
O12      O      0.176320000000     0.046900000000     0.174770000000    -0.653954   
O13      O      0.025160000000     0.873350000000     0.024150000000    -0.384691   
O14      O      0.099740000000     0.166140000000     0.041900000000    -0.3871     
O15      O      0.907840000000     0.959360000000     0.174830000000    -0.389333   
O16      O      0.228160000000     0.896430000000     0.078720000000    -0.379592   
O17      O      0.271220000000     0.064610000000     0.082910000000    -0.383504   
O18      O      0.952010000000     0.121730000000     0.187420000000    -0.385205   
O19      O      0.956140000000     0.043250000000     0.983810000000    -0.388487   
O20      O      0.140230000000     0.010280000000     0.927460000000    -0.385898   
O21      O      0.905530000000     0.048990000000     0.077370000000    -0.384156   
O22      O      0.225650000000     0.988900000000     0.981570000000    -0.387429   
O23      O      0.957480000000     0.883560000000     0.148700000000    -0.378669   
O24      O      0.031800000000     0.173900000000     0.160600000000    -0.375867   
O25      O      0.218260000000     0.139390000000     0.106700000000    -0.379845   
O26      O      0.143780000000     0.846830000000     0.096230000000    -0.377488   
O27      O      0.031430000000     0.938960000000     0.950420000000    -0.373975   
O28      O      0.073840000000     0.110990000000     0.960960000000    -0.370278   
O29      O      0.145080000000     0.057930000000     0.053320000000    -0.505313   
O30      O      0.004480000000     0.974970000000     0.080230000000    -0.505598   
O31      O      0.031290000000     0.078210000000     0.086320000000    -0.651099   
O32      O      0.118180000000     0.952820000000     0.047030000000    -0.647346   
O33      O      0.076410000000     0.382350000000     0.489160000000    -0.37888    
O34      O      0.031310000000     0.673340000000     0.534690000000    -0.381402   
O35      O      0.951370000000     0.508180000000     0.465090000000    -0.370088   
O36      O      0.138830000000     0.550490000000     0.419110000000    -0.380932   
O37      O      0.226830000000     0.555300000000     0.475000000000    -0.385308   
O38      O      0.898620000000     0.498430000000     0.556870000000    -0.379903   
O39      O      0.015770000000     0.613580000000     0.455840000000    -0.395643   
O40      O      0.053930000000     0.452040000000     0.425430000000    -0.385615   
O41      O      0.120750000000     0.586250000000     0.544710000000    -0.504027   
O42      O      0.018680000000     0.464870000000     0.558030000000    -0.512728   
O43      O      0.002350000000     0.567820000000     0.574650000000    -0.653983   
O44      O      0.137650000000     0.482200000000     0.527590000000    -0.650299   
O45      O      0.085650000000     0.662670000000     0.730040000000    -0.380774   
O46      O      0.138600000000     0.367040000000     0.681550000000    -0.386795   
O47      O      0.910130000000     0.576640000000     0.677660000000    -0.392405   
O48      O      0.236970000000     0.629960000000     0.592890000000    -0.374231   
O49      O      0.262290000000     0.456410000000     0.567210000000    -0.369805   
O50      O      0.936420000000     0.412710000000     0.650560000000    -0.389421   
O51      O      0.040730000000     0.489470000000     0.811490000000    -0.39118    
O52      O      0.219750000000     0.525290000000     0.763740000000    -0.393787   
O53      O      0.953150000000     0.482890000000     0.755830000000    -0.378233   
O54      O      0.273650000000     0.529070000000     0.672260000000    -0.376839   
O55      O      0.964610000000     0.651530000000     0.659180000000    -0.375488   
O56      O      0.012460000000     0.360140000000     0.614450000000    -0.379233   
O57      O      0.196590000000     0.387470000000     0.556610000000    -0.389838   
O58      O      0.154290000000     0.681670000000     0.611400000000    -0.378599   
O59      O      0.109880000000     0.594470000000     0.795810000000    -0.371169   
O60      O      0.143750000000     0.421430000000     0.767480000000    -0.371456   
O61      O      0.165380000000     0.471910000000     0.650280000000    -0.503224   
O62      O      0.033840000000     0.560220000000     0.697820000000    -0.506487   
O63      O      0.051960000000     0.454500000000     0.680510000000    -0.656031   
O64      O      0.149560000000     0.577290000000     0.666690000000    -0.647126   
O65      O      0.693740000000     0.985770000000     0.450970000000    -0.380249   
O66      O      0.398310000000     0.065310000000     0.603610000000    -0.386312   
O67      O      0.487630000000     0.948450000000     0.465310000000    -0.391475   
O68      O      0.534520000000     0.111270000000     0.454290000000    -0.386898   
O69      O      0.586650000000     0.169440000000     0.515860000000    -0.379382   
O70      O      0.511150000000     0.880120000000     0.531090000000    -0.377331   
O71      O      0.432790000000     0.053870000000     0.503320000000    -0.379468   
O72      O      0.601010000000     0.007980000000     0.412950000000    -0.385257   
O73      O      0.527290000000     0.088430000000     0.584250000000    -0.505374   
O74      O      0.601400000000     0.958210000000     0.536670000000    -0.509378   
O75      O      0.495970000000     0.984750000000     0.591670000000    -0.647911   
O76      O      0.631780000000     0.061860000000     0.529210000000    -0.658131   
O77      O      0.482320000000     0.052940000000     0.785150000000    -0.390715   
O78      O      0.779860000000     0.979410000000     0.633610000000    -0.384031   
O79      O      0.462500000000     0.894860000000     0.667670000000    -0.38127    
O80      O      0.552870000000     0.186550000000     0.654210000000    -0.385791   
O81      O      0.719230000000     0.142140000000     0.561630000000    -0.382987   
O82      O      0.638110000000     0.854370000000     0.589670000000    -0.379451   
O83      O      0.635440000000     0.930960000000     0.786410000000    -0.382539   
O84      O      0.685580000000     0.095150000000     0.774130000000    -0.384353   
O85      O      0.586640000000     0.872090000000     0.722860000000    -0.378766   
O86      O      0.671860000000     0.160930000000     0.701980000000    -0.378095   
O87      O      0.415790000000     0.972400000000     0.693680000000    -0.374599   
O88      O      0.712200000000     0.902410000000     0.541910000000    -0.385848   
O89      O      0.760880000000     0.064010000000     0.530540000000    -0.391012   
O90      O      0.465150000000     0.143950000000     0.679110000000    -0.366341   
O91      O      0.575800000000     0.032090000000     0.822640000000    -0.38234    
O92      O      0.745780000000     0.989560000000     0.734380000000    -0.383264   
O93      O      0.684910000000     0.055930000000     0.645230000000    -0.512199   
O94      O      0.546980000000     0.979480000000     0.704740000000    -0.501972   
O95      O      0.653470000000     0.952590000000     0.652390000000    -0.654389   
O96      O      0.577390000000     0.082570000000     0.697940000000    -0.649606   
O97      O      0.530740000000     0.343600000000     0.136400000000    -0.379831   
O98      O      0.446000000000     0.634760000000     0.129840000000    -0.381147   
O99      O      0.446660000000     0.481140000000     0.251870000000    -0.381872   
O100     O      0.392280000000     0.464050000000     0.055710000000    -0.37956    
O101     O      0.442960000000     0.470210000000     0.963320000000    -0.395471   
O102     O      0.534820000000     0.501590000000     0.301810000000    -0.381523   
O103     O      0.394870000000     0.558260000000     0.150020000000    -0.378936   
O104     O      0.446180000000     0.391540000000     0.159490000000    -0.380781   
O105     O      0.490110000000     0.544310000000     0.060370000000    -0.505166   
O106     O      0.554190000000     0.449980000000     0.183290000000    -0.504454   
O107     O      0.523580000000     0.553440000000     0.180630000000    -0.649595   
O108     O      0.520780000000     0.439000000000     0.063250000000    -0.651411   
O109     O      0.631480000000     0.674120000000     0.074680000000    -0.375636   
O110     O      0.714920000000     0.385420000000     0.078360000000    -0.376537   
O111     O      0.605350000000     0.604580000000     0.270730000000    -0.388065   
O112     O      0.497120000000     0.575300000000     0.935720000000    -0.379236   
O113     O      0.561390000000     0.412960000000     0.934500000000    -0.380022   
O114     O      0.662420000000     0.445690000000     0.271760000000    -0.394271   
O115     O      0.762170000000     0.556700000000     0.145820000000    -0.380012   
O116     O      0.702000000000     0.537970000000     0.948860000000    -0.379499   
O117     O      0.713950000000     0.551600000000     0.240680000000    -0.372939   
O118     O      0.612470000000     0.520620000000     0.900290000000    -0.392787   
O119     O      0.562050000000     0.661430000000     0.200670000000    -0.378392   
O120     O      0.651200000000     0.374290000000     0.207140000000    -0.37855    
O121     O      0.599170000000     0.356330000000     0.008330000000    -0.378191   
O122     O      0.509790000000     0.646130000000     0.001090000000    -0.38077    
O123     O      0.710500000000     0.624530000000     0.039050000000    -0.388299   
O124     O      0.761140000000     0.462050000000     0.048530000000    -0.387909   
O125     O      0.633040000000     0.463720000000     0.024330000000    -0.508983   
O126     O      0.637330000000     0.578060000000     0.142260000000    -0.507788   
O127     O      0.667680000000     0.475320000000     0.144950000000    -0.654481   
O128     O      0.601350000000     0.568420000000     0.022370000000    -0.654955   
Zr1      Zr     0.121160000000     0.000120000000     0.249480000000     1.4344     
Zr2      Zr     0.062230000000     0.907000000000     0.123280000000     1.42528    
Zr3      Zr     0.115780000000     0.114480000000     0.135240000000     1.4259     
Zr4      Zr     0.977110000000     0.031640000000     0.161890000000     1.43307    
Zr5      Zr     0.203610000000     0.989430000000     0.093430000000     1.43583    
Zr6      Zr     0.060540000000     0.021380000000     0.004770000000     1.41266    
Zr7      Zr     0.055280000000     0.529980000000     0.490780000000     1.4284     
Zr8      Zr     0.066920000000     0.625040000000     0.627280000000     1.41883    
Zr9      Zr     0.099900000000     0.416730000000     0.593820000000     1.43651    
Zr10     Zr     0.970160000000     0.502630000000     0.644450000000     1.43472    
Zr11     Zr     0.202760000000     0.537580000000     0.584560000000     1.40806    
Zr12     Zr     0.115970000000     0.511680000000     0.734880000000     1.43058    
Zr13     Zr     0.537770000000     0.026320000000     0.504490000000     1.43535    
Zr14     Zr     0.483420000000     0.047600000000     0.671220000000     1.4168     
Zr15     Zr     0.694250000000     0.994200000000     0.564270000000     1.43904    
Zr16     Zr     0.560460000000     0.916830000000     0.624730000000     1.41978    
Zr17     Zr     0.621630000000     0.123070000000     0.610270000000     1.42556    
Zr18     Zr     0.640370000000     0.014960000000     0.732160000000     1.4252     
Zr19     Zr     0.465400000000     0.484460000000     0.139390000000     1.41936    
Zr20     Zr     0.548980000000     0.613260000000     0.101220000000     1.42047    
Zr21     Zr     0.610170000000     0.405460000000     0.106450000000     1.41447    
Zr22     Zr     0.612460000000     0.519200000000     0.222300000000     1.43459    
Zr23     Zr     0.544000000000     0.498610000000     0.983720000000     1.43946    
Zr24     Zr     0.689980000000     0.533520000000     0.063260000000     1.43243    


