data_structure

_audit_creation_method RASPA-1.0
_audit_creation_date 2023-5-19
_audit_author_name 'Poobodin Mano'

_cell_length_a    33.7457
_cell_length_b    33.6938
_cell_length_c    33.7578
_cell_angle_alpha 90
_cell_angle_beta  90
_cell_angle_gamma 90
_cell_volume      38383.3

_symmetry_cell_setting          triclinic
_symmetry_space_group_name_Hall 'P 1'
_symmetry_space_group_name_H-M  'P 1'
_symmetry_Int_Tables_number     1

_symmetry_equiv_pos_as_xyz 'x,y,z'

loop_
_atom_site_label
_atom_site_type_symbol
_atom_site_fract_x
_atom_site_fract_y
_atom_site_fract_z
_atom_site_charge
C1       C      0.979270000000     0.083990000000     0.088500000000     0.39753    
C2       C      0.982620000000     0.881040000000     0.082360000000     0.399017   
C3       C      0.881770000000     0.980320000000     0.084310000000     0.397343   
C4       C      0.084160000000     0.982350000000     0.086930000000     0.401655   
C5       C      0.986880000000     0.887250000000     0.880710000000     0.398939   
C6       C      0.987410000000     0.089900000000     0.885770000000     0.39926    
C7       C      0.884970000000     0.883110000000     0.976860000000     0.40022    
C8       C      0.087250000000     0.886090000000     0.983430000000     0.399021   
C9       C      0.083860000000     0.089350000000     0.988610000000     0.399133   
C10      C      0.881720000000     0.086220000000     0.987890000000     0.39952    
C11      C      0.884930000000     0.986180000000     0.881150000000     0.399276   
C12      C      0.087470000000     0.991980000000     0.884820000000     0.398339   
C13      C      0.982820000000     0.382360000000     0.385560000000     0.396635   
C14      C      0.987320000000     0.585120000000     0.381260000000     0.396598   
C15      C      0.884940000000     0.484390000000     0.381520000000     0.398749   
C16      C      0.087630000000     0.482430000000     0.384980000000     0.399326   
C17      C      0.982820000000     0.590760000000     0.582850000000     0.399834   
C18      C      0.982800000000     0.387660000000     0.588580000000     0.396373   
C19      C      0.884790000000     0.589000000000     0.481640000000     0.398225   
C20      C      0.087040000000     0.586120000000     0.481890000000     0.398774   
C21      C      0.083870000000     0.383120000000     0.489880000000     0.400026   
C22      C      0.880860000000     0.386900000000     0.487970000000     0.400206   
C23      C      0.882180000000     0.486880000000     0.584340000000     0.399725   
C24      C      0.084870000000     0.484920000000     0.586960000000     0.400364   
C25      C      0.585700000000     0.984600000000     0.382640000000     0.396324   
C26      C      0.383450000000     0.984230000000     0.383130000000     0.398596   
C27      C      0.488450000000     0.881860000000     0.386270000000     0.399446   
C28      C      0.482290000000     0.085040000000     0.380680000000     0.397719   
C29      C      0.383150000000     0.987940000000     0.585600000000     0.396844   
C30      C      0.585850000000     0.990270000000     0.585510000000     0.396012   
C31      C      0.384690000000     0.883580000000     0.487760000000     0.396801   
C32      C      0.382260000000     0.086630000000     0.481120000000     0.397854   
C33      C      0.584650000000     0.088810000000     0.484080000000     0.397373   
C34      C      0.586820000000     0.885780000000     0.486050000000     0.396921   
C35      C      0.483410000000     0.887970000000     0.588200000000     0.4026     
C36      C      0.482560000000     0.090290000000     0.582620000000     0.401865   
C37      C      0.381680000000     0.386530000000     0.982730000000     0.397514   
C38      C      0.583650000000     0.382760000000     0.982510000000     0.396959   
C39      C      0.481720000000     0.387420000000     0.880940000000     0.399062   
C40      C      0.486040000000     0.382100000000     0.082910000000     0.399549   
C41      C      0.587700000000     0.585870000000     0.984550000000     0.397608   
C42      C      0.385440000000     0.589590000000     0.988310000000     0.396897   
C43      C      0.584860000000     0.487670000000     0.881970000000     0.395461   
C44      C      0.586680000000     0.481480000000     0.084920000000     0.396331   
C45      C      0.384070000000     0.486700000000     0.086660000000     0.397078   
C46      C      0.382000000000     0.488200000000     0.884470000000     0.397369   
C47      C      0.486140000000     0.589700000000     0.885530000000     0.398707   
C48      C      0.486070000000     0.585320000000     0.087840000000     0.397545   
C49      C      0.491790000000     0.283170000000     0.130890000000    -0.106008   
C50      C      0.479040000000     0.153010000000     0.361130000000     0.0716721  
C51      C      0.483860000000     0.102800000000     0.312160000000     0.0713519  
C52      C      0.478750000000     0.182340000000     0.331970000000    -0.0935598  
C53      C      0.509500000000     0.200470000000     0.229520000000    -0.0363692  
C54      C      0.510620000000     0.229940000000     0.200440000000    -0.0344619  
C55      C      0.482110000000     0.202710000000     0.260760000000    -0.00665932 
C56      C      0.484000000000     0.131460000000     0.282250000000    -0.0931271  
C57      C      0.484140000000     0.262180000000     0.201730000000    -0.0093722  
C58      C      0.479730000000     0.333270000000     0.179810000000    -0.0962291  
C59      C      0.456690000000     0.264330000000     0.233000000000    -0.0345705  
C60      C      0.480740000000     0.361960000000     0.150040000000     0.0710732  
C61      C      0.493250000000     0.312440000000     0.101450000000     0.103479   
C62      C      0.455770000000     0.234980000000     0.262250000000    -0.0363566  
C63      C      0.481460000000     0.171760000000     0.292010000000     0.049194   
C64      C      0.485060000000     0.293280000000     0.170430000000     0.0549071  
C65      C      0.496020000000     0.783090000000     0.338100000000    -0.106032   
C66      C      0.484040000000     0.653380000000     0.107330000000     0.0716648  
C67      C      0.488510000000     0.603150000000     0.156310000000     0.0712029  
C68      C      0.484060000000     0.682720000000     0.136510000000    -0.0934189  
C69      C      0.514470000000     0.700780000000     0.239120000000    -0.0365319  
C70      C      0.515280000000     0.730120000000     0.268360000000    -0.0344721  
C71      C      0.487200000000     0.703000000000     0.207770000000    -0.00666551 
C72      C      0.488990000000     0.631800000000     0.186230000000    -0.0933007  
C73      C      0.488570000000     0.762180000000     0.267140000000    -0.0095012  
C74      C      0.483230000000     0.833110000000     0.289280000000    -0.0963126  
C75      C      0.461220000000     0.764260000000     0.235770000000    -0.0344139  
C76      C      0.483680000000     0.861720000000     0.319110000000     0.0710505  
C77      C      0.496920000000     0.812320000000     0.367620000000     0.103369   
C78      C      0.460640000000     0.735090000000     0.206350000000    -0.0364637  
C79      C      0.486680000000     0.672110000000     0.176470000000     0.0491386  
C80      C      0.489150000000     0.793180000000     0.298560000000     0.0548231  
C81      C      0.463850000000     0.835900000000     0.682220000000    -0.105078   
C82      C      0.475720000000     0.610640000000     0.819000000000     0.0715079  
C83      C      0.498100000000     0.656900000000     0.866860000000     0.0718072  
C84      C      0.475520000000     0.640040000000     0.789940000000    -0.092592   
C85      C      0.494320000000     0.700630000000     0.727770000000    -0.0358549  
C86      C      0.493280000000     0.729880000000     0.698510000000    -0.0342204  
C87      C      0.488600000000     0.710350000000     0.767930000000    -0.00592975 
C88      C      0.499610000000     0.686730000000     0.838160000000    -0.0923165  
C89      C      0.487870000000     0.770070000000     0.708490000000    -0.00859905 
C90      C      0.506940000000     0.796680000000     0.641290000000    -0.0957974  
C91      C      0.483320000000     0.779950000000     0.748770000000    -0.0344099  
C92      C      0.504250000000     0.825560000000     0.611860000000     0.0728053  
C93      C      0.462590000000     0.865080000000     0.652700000000     0.103744   
C94      C      0.483030000000     0.750530000000     0.777920000000    -0.0359574  
C95      C      0.487990000000     0.678730000000     0.799020000000     0.0484306  
C96      C      0.486470000000     0.801360000000     0.677090000000     0.0543119  
C97      C      0.460720000000     0.183820000000     0.634780000000    -0.1054     
C98      C      0.470640000000     0.320780000000     0.860200000000     0.0720713  
C99      C      0.492330000000     0.368740000000     0.813700000000     0.0712724  
C100     C      0.470180000000     0.291640000000     0.830860000000    -0.0926319  
C101     C      0.489280000000     0.229460000000     0.770200000000    -0.035968   
C102     C      0.488940000000     0.200230000000     0.740890000000    -0.0343966  
C103     C      0.482950000000     0.269620000000     0.760570000000    -0.00605213 
C104     C      0.493590000000     0.340000000000     0.783960000000    -0.0926215  
C105     C      0.483610000000     0.210300000000     0.700780000000    -0.00869667 
C106     C      0.504560000000     0.143650000000     0.673990000000    -0.0959635  
C107     C      0.478260000000     0.250570000000     0.691040000000    -0.034389   
C108     C      0.502800000000     0.114290000000     0.644970000000     0.0738229  
C109     C      0.460390000000     0.154410000000     0.605480000000     0.10376    
C110     C      0.477250000000     0.279640000000     0.720490000000    -0.0359507  
C111     C      0.482230000000     0.300760000000     0.792120000000     0.0484687  
C112     C      0.483200000000     0.179000000000     0.669390000000     0.0544543  
C113     C      0.784200000000     0.338290000000     0.505250000000    -0.104877   
C114     C      0.652540000000     0.108580000000     0.481550000000     0.0711906  
C115     C      0.602460000000     0.157170000000     0.489750000000     0.071353   
C116     C      0.681790000000     0.137870000000     0.482640000000    -0.0925881  
C117     C      0.695000000000     0.247290000000     0.473520000000    -0.0360294  
C118     C      0.724090000000     0.276790000000     0.474890000000    -0.0350306  
C119     C      0.702250000000     0.209380000000     0.489550000000    -0.0065254  
C120     C      0.631010000000     0.187140000000     0.491540000000    -0.0924434  
C121     C      0.761280000000     0.268940000000     0.491780000000    -0.00941861 
C122     C      0.830850000000     0.291040000000     0.479480000000    -0.0965592  
C123     C      0.768670000000     0.231230000000     0.507810000000    -0.0352047  
C124     C      0.859700000000     0.320630000000     0.479020000000     0.0725412  
C125     C      0.813740000000     0.367590000000     0.504940000000     0.0986958  
C126     C      0.739420000000     0.201880000000     0.506980000000    -0.0360068  
C127     C      0.671330000000     0.177790000000     0.487910000000     0.0485362  
C128     C      0.792500000000     0.299870000000     0.492090000000     0.0542931  
C129     C      0.835170000000     0.686810000000     0.473280000000    -0.106551   
C130     C      0.605670000000     0.817690000000     0.490790000000     0.0695612  
C131     C      0.654960000000     0.867050000000     0.482270000000     0.0709299  
C132     C      0.634530000000     0.788030000000     0.491080000000    -0.0936336  
C133     C      0.742770000000     0.773420000000     0.504220000000    -0.0361589  
C134     C      0.772150000000     0.744210000000     0.503520000000    -0.0349207  
C135     C      0.705700000000     0.766640000000     0.486370000000    -0.00676603 
C136     C      0.684570000000     0.838080000000     0.482130000000    -0.0930714  
C137     C      0.765040000000     0.707420000000     0.485270000000    -0.0095371  
C138     C      0.787980000000     0.637120000000     0.492320000000    -0.0966341  
C139     C      0.727940000000     0.700400000000     0.467780000000    -0.0349582  
C140     C      0.817980000000     0.608710000000     0.490790000000     0.071263   
C141     C      0.864760000000     0.657710000000     0.471160000000     0.101551   
C142     C      0.698670000000     0.729730000000     0.468160000000    -0.0360844  
C143     C      0.674580000000     0.797950000000     0.486580000000     0.0485755  
C144     C      0.796510000000     0.676730000000     0.483920000000     0.0547482  
C145     C      0.133410000000     0.284930000000     0.496100000000    -0.105695   
C146     C      0.314070000000     0.105280000000     0.484640000000     0.0714173  
C147     C      0.363400000000     0.154800000000     0.477160000000     0.0723024  
C148     C      0.284520000000     0.134290000000     0.485760000000    -0.0932256  
C149     C      0.233110000000     0.203350000000     0.512660000000    -0.0362444  
C150     C      0.203940000000     0.232700000000     0.514560000000    -0.0346372  
C151     C      0.263690000000     0.205730000000     0.484530000000    -0.00673737 
C152     C      0.334580000000     0.184520000000     0.477950000000    -0.0934968  
C153     C      0.204530000000     0.265030000000     0.488200000000    -0.00923206 
C154     C      0.181650000000     0.335830000000     0.484600000000    -0.0956171  
C155     C      0.235280000000     0.267520000000     0.460200000000    -0.0347213  
C156     C      0.151420000000     0.364050000000     0.485580000000     0.07159    
C157     C      0.103470000000     0.313710000000     0.497380000000     0.103415   
C158     C      0.264580000000     0.238230000000     0.458430000000    -0.0362637  
C159     C      0.294630000000     0.174460000000     0.482590000000     0.0492997  
C160     C      0.172830000000     0.295690000000     0.489580000000     0.0548652  
C161     C      0.138510000000     0.683270000000     0.476520000000    -0.106053   
C162     C      0.367370000000     0.814970000000     0.491820000000     0.0716937  
C163     C      0.316830000000     0.863430000000     0.486040000000     0.0712198  
C164     C      0.339120000000     0.784670000000     0.492440000000    -0.0922906  
C165     C      0.274990000000     0.725720000000     0.469950000000    -0.0361225  
C166     C      0.245840000000     0.696210000000     0.469190000000    -0.0346726  
C167     C      0.268180000000     0.761930000000     0.489640000000    -0.00634977 
C168     C      0.287830000000     0.833850000000     0.486350000000    -0.0926267  
C169     C      0.209130000000     0.702350000000     0.487830000000    -0.00942031 
C170     C      0.185360000000     0.631820000000     0.491040000000    -0.0966837  
C171     C      0.202500000000     0.738250000000     0.507950000000    -0.0348102  
C172     C      0.154740000000     0.604010000000     0.488980000000     0.0709451  
C173     C      0.108290000000     0.654900000000     0.473930000000     0.103281   
C174     C      0.231690000000     0.767620000000     0.508950000000    -0.0359633  
C175     C      0.298740000000     0.793840000000     0.489570000000     0.0487476  
C176     C      0.177300000000     0.672020000000     0.485360000000     0.0550228  
C177     C      0.835580000000     0.485810000000     0.283140000000    -0.106024   
C178     C      0.605150000000     0.478190000000     0.153100000000     0.0712814  
C179     C      0.654970000000     0.481240000000     0.103740000000     0.070863   
C180     C      0.633880000000     0.477360000000     0.182840000000    -0.0930433  
C181     C      0.699530000000     0.499850000000     0.239780000000    -0.0361777  
C182     C      0.728770000000     0.500070000000     0.269110000000    -0.0348243  
C183     C      0.705100000000     0.478540000000     0.204360000000    -0.00662674 
C184     C      0.684480000000     0.480590000000     0.132780000000    -0.0927898  
C185     C      0.764370000000     0.479150000000     0.263640000000    -0.00940193 
C186     C      0.787170000000     0.477410000000     0.334370000000    -0.0960071  
C187     C      0.769870000000     0.457620000000     0.228390000000    -0.0348062  
C188     C      0.817420000000     0.479080000000     0.362500000000     0.0711333  
C189     C      0.865560000000     0.487890000000     0.311800000000     0.103112   
C190     C      0.740570000000     0.457260000000     0.199130000000    -0.0362212  
C191     C      0.674140000000     0.478730000000     0.172950000000     0.0486143  
C192     C      0.796090000000     0.480530000000     0.294150000000     0.0548298  
C193     C      0.185970000000     0.477810000000     0.335790000000    -0.106205   
C194     C      0.365430000000     0.484420000000     0.154920000000     0.0711128  
C195     C      0.315920000000     0.489610000000     0.105410000000     0.0715058  
C196     C      0.336490000000     0.484300000000     0.184520000000    -0.0928918  
C197     C      0.229270000000     0.465990000000     0.199440000000    -0.0361656  
C198     C      0.199990000000     0.465490000000     0.228720000000    -0.034658   
C199     C      0.265030000000     0.486610000000     0.205470000000    -0.00653514 
C200     C      0.286270000000     0.489700000000     0.134250000000    -0.092928   
C201     C      0.205850000000     0.485440000000     0.264800000000    -0.00945115 
C202     C      0.135130000000     0.488470000000     0.287390000000    -0.0963828  
C203     C      0.241480000000     0.506200000000     0.270800000000    -0.0346625  
C204     C      0.106880000000     0.487260000000     0.317540000000     0.0715045  
C205     C      0.157160000000     0.476200000000     0.365650000000     0.103465   
C206     C      0.270690000000     0.506840000000     0.241470000000    -0.0361566  
C207     C      0.296310000000     0.486920000000     0.174400000000     0.0488364  
C208     C      0.175220000000     0.484100000000     0.296380000000     0.0551597  
C209     C      0.182220000000     0.477700000000     0.637700000000    -0.105551   
C210     C      0.313460000000     0.490450000000     0.867000000000     0.0712977  
C211     C      0.362130000000     0.485500000000     0.816600000000     0.0712903  
C212     C      0.283280000000     0.490070000000     0.838700000000    -0.0933492  
C213     C      0.262890000000     0.458080000000     0.736900000000    -0.0362911  
C214     C      0.233410000000     0.457080000000     0.707900000000    -0.0344725  
C215     C      0.260980000000     0.485650000000     0.768020000000    -0.00661775 
C216     C      0.332640000000     0.484680000000     0.787570000000    -0.0931575  
C217     C      0.201450000000     0.483890000000     0.709080000000    -0.00926816 
C218     C      0.131020000000     0.489770000000     0.685360000000    -0.0957651  
C219     C      0.199310000000     0.511180000000     0.740540000000    -0.0345757  
C220     C      0.103200000000     0.489590000000     0.654730000000     0.0709085  
C221     C      0.153890000000     0.477090000000     0.607410000000     0.102925   
C222     C      0.228700000000     0.511970000000     0.769760000000    -0.0364633  
C223     C      0.292680000000     0.486920000000     0.798480000000     0.0490697  
C224     C      0.171110000000     0.483880000000     0.677050000000     0.0547456  
C225     C      0.793050000000     0.458540000000     0.639710000000    -0.104678   
C226     C      0.652350000000     0.480830000000     0.861710000000     0.070535   
C227     C      0.602950000000     0.494950000000     0.813930000000     0.0708359  
C228     C      0.681440000000     0.480310000000     0.832240000000    -0.0921287  
C229     C      0.693270000000     0.475350000000     0.722070000000    -0.0361812  
C230     C      0.722220000000     0.475710000000     0.692370000000    -0.0347548  
C231     C      0.702200000000     0.488040000000     0.760820000000    -0.00607824 
C232     C      0.631410000000     0.495400000000     0.783840000000    -0.0921127  
C233     C      0.761150000000     0.488210000000     0.700640000000    -0.00871276 
C234     C      0.823180000000     0.515940000000     0.669680000000    -0.095593   
C235     C      0.770110000000     0.500590000000     0.739460000000    -0.034586   
C236     C      0.853450000000     0.514040000000     0.641650000000     0.0744534  
C237     C      0.823850000000     0.457350000000     0.611780000000     0.103041   
C238     C      0.741040000000     0.500880000000     0.768940000000    -0.0360556  
C239     C      0.671330000000     0.487860000000     0.792620000000     0.047949   
C240     C      0.792430000000     0.487940000000     0.669230000000     0.0535167  
C241     C      0.835910000000     0.785630000000     0.964330000000    -0.10644    
C242     C      0.607140000000     0.653860000000     0.988270000000     0.0710861  
C243     C      0.655890000000     0.604090000000     0.979100000000     0.0711669  
C244     C      0.636190000000     0.683320000000     0.987560000000    -0.0930652  
C245     C      0.699690000000     0.741300000000     0.962790000000    -0.0361565  
C246     C      0.728850000000     0.770710000000     0.961740000000    -0.0348487  
C247     C      0.707320000000     0.704300000000     0.980610000000    -0.00619608 
C248     C      0.685660000000     0.632870000000     0.977820000000    -0.0927368  
C249     C      0.766460000000     0.763680000000     0.978050000000    -0.00920569 
C250     C      0.788740000000     0.833910000000     0.986880000000    -0.0967916  
C251     C      0.774320000000     0.726710000000     0.995590000000    -0.0362017  
C252     C      0.818390000000     0.862700000000     0.985820000000     0.0715448  
C253     C      0.865070000000     0.815200000000     0.962620000000     0.102488   
C254     C      0.745030000000     0.697430000000     0.997060000000    -0.0374667  
C255     C      0.676060000000     0.673120000000     0.982060000000     0.0484105  
C256     C      0.797500000000     0.794780000000     0.976660000000     0.0547092  
C257     C      0.830190000000     0.183010000000     0.997340000000    -0.108275   
C258     C      0.600890000000     0.314100000000     0.979070000000     0.0695335  
C259     C      0.651260000000     0.362500000000     0.986990000000     0.0711221  
C260     C      0.629080000000     0.283750000000     0.979920000000    -0.093973   
C261     C      0.699090000000     0.229680000000     0.959400000000    -0.0365122  
C262     C      0.728520000000     0.200480000000     0.960440000000    -0.0343063  
C263     C      0.699570000000     0.261210000000     0.986640000000    -0.00827097 
C264     C      0.680140000000     0.332880000000     0.988300000000    -0.093913   
C265     C      0.758910000000     0.202050000000     0.988940000000    -0.0114815  
C266     C      0.783240000000     0.131940000000     0.981830000000    -0.0969707  
C267     C      0.758770000000     0.233200000000     0.016700000000    -0.0330891  
C268     C      0.814000000000     0.104250000000     0.982110000000     0.070646   
C269     C      0.860600000000     0.154740000000     0.998010000000     0.102567   
C270     C      0.729560000000     0.262510000000     0.015440000000    -0.0353121  
C271     C      0.669190000000     0.292970000000     0.984870000000     0.0490279  
C272     C      0.791130000000     0.171900000000     0.989280000000     0.0555642  
C273     C      0.139090000000     0.789190000000     0.977920000000    -0.106915   
C274     C      0.368220000000     0.658210000000     0.992660000000     0.0712312  
C275     C      0.317630000000     0.609760000000     0.987200000000     0.0711406  
C276     C      0.339950000000     0.688490000000     0.993690000000    -0.0931587  
C277     C      0.275600000000     0.747480000000     0.972090000000    -0.0361479  
C278     C      0.246310000000     0.776830000000     0.971480000000    -0.034428   
C279     C      0.268940000000     0.711130000000     0.991560000000    -0.00793022 
C280     C      0.288640000000     0.639300000000     0.987840000000    -0.0932078  
C281     C      0.209620000000     0.770370000000     0.990030000000    -0.0113712  
C282     C      0.185450000000     0.840620000000     0.994100000000    -0.0988738  
C283     C      0.203120000000     0.734360000000     0.009940000000    -0.0330418  
C284     C      0.154770000000     0.868310000000     0.991900000000     0.0725705  
C285     C      0.108820000000     0.817490000000     0.975120000000     0.104396   
C286     C      0.232480000000     0.705160000000     0.010860000000    -0.0347182  
C287     C      0.299550000000     0.679290000000     0.991150000000     0.0489737  
C288     C      0.177660000000     0.800510000000     0.987610000000     0.0565614  
C289     C      0.132710000000     0.188020000000     0.992920000000    -0.105824   
C290     C      0.362800000000     0.318350000000     0.980090000000     0.0716494  
C291     C      0.313340000000     0.368070000000     0.984690000000     0.0712401  
C292     C      0.333930000000     0.288710000000     0.980190000000    -0.0933413  
C293     C      0.268830000000     0.231990000000     0.004570000000    -0.0347358  
C294     C      0.239640000000     0.202590000000     0.005320000000    -0.033167   
C295     C      0.262750000000     0.267520000000     0.983520000000    -0.00798009 
C296     C      0.283690000000     0.339120000000     0.985000000000    -0.0930905  
C297     C      0.203610000000     0.208110000000     0.985220000000    -0.0108186  
C298     C      0.181330000000     0.137190000000     0.982760000000    -0.0964196  
C299     C      0.197530000000     0.243540000000     0.964080000000    -0.034494   
C300     C      0.151280000000     0.108810000000     0.984110000000     0.0711698  
C301     C      0.102940000000     0.159080000000     0.994650000000     0.102082   
C302     C      0.226780000000     0.272870000000     0.963190000000    -0.0358952  
C303     C      0.293800000000     0.298840000000     0.982840000000     0.0492528  
C304     C      0.172170000000     0.177340000000     0.986780000000     0.055236   
C305     C      0.835430000000     0.983630000000     0.782880000000    -0.106281   
C306     C      0.604330000000     0.993350000000     0.653730000000     0.0706873  
C307     C      0.654090000000     0.989790000000     0.604320000000     0.070836   
C308     C      0.633140000000     0.993890000000     0.683440000000    -0.0933561  
C309     C      0.698910000000     0.970800000000     0.740160000000    -0.036164   
C310     C      0.728380000000     0.970220000000     0.769250000000    -0.0345576  
C311     C      0.704470000000     0.992070000000     0.704720000000    -0.00806809 
C312     C      0.683630000000     0.990150000000     0.633290000000    -0.0932322  
C313     C      0.764170000000     0.990730000000     0.763520000000    -0.0109232  
C314     C      0.787130000000     0.992740000000     0.834110000000    -0.0968603  
C315     C      0.769670000000     0.012210000000     0.728260000000    -0.0334972  
C316     C      0.817410000000     0.991220000000     0.862180000000     0.0711754  
C317     C      0.865450000000     0.981710000000     0.811520000000     0.103572   
C318     C      0.740150000000     0.012940000000     0.699240000000    -0.0348952  
C319     C      0.673380000000     0.992140000000     0.673460000000     0.0488265  
C320     C      0.795970000000     0.989230000000     0.793930000000     0.0553014  
C321     C      0.185320000000     0.999780000000     0.834990000000    -0.109984   
C322     C      0.314920000000     0.985120000000     0.604250000000     0.0714718  
C323     C      0.364240000000     0.992970000000     0.653610000000     0.0717537  
C324     C      0.285210000000     0.985800000000     0.633050000000    -0.0933887  
C325     C      0.266050000000     0.019220000000     0.735100000000    -0.0352471  
C326     C      0.236890000000     0.020160000000     0.764470000000    -0.0330987  
C327     C      0.263940000000     0.991530000000     0.704050000000    -0.00796145 
C328     C      0.335250000000     0.993970000000     0.683130000000    -0.0934182  
C329     C      0.204990000000     0.993280000000     0.763640000000    -0.0115784  
C330     C      0.134480000000     0.988030000000     0.786870000000    -0.0974448  
C331     C      0.202760000000     0.965750000000     0.732400000000    -0.0342608  
C332     C      0.106430000000     0.988150000000     0.817230000000     0.0695469  
C333     C      0.156690000000     0.000210000000     0.865080000000     0.106014   
C334     C      0.231860000000     0.964930000000     0.702910000000    -0.0363633  
C335     C      0.295170000000     0.990370000000     0.673030000000     0.0492418  
C336     C      0.174520000000     0.993650000000     0.795530000000     0.0561445  
C337     C      0.137410000000     0.961090000000     0.179970000000    -0.104644   
C338     C      0.363410000000     0.973450000000     0.316280000000     0.0713279  
C339     C      0.316580000000     0.995590000000     0.363640000000     0.0709269  
C340     C      0.334220000000     0.972810000000     0.286970000000    -0.0926423  
C341     C      0.273240000000     0.990380000000     0.224440000000    -0.0357404  
C342     C      0.243800000000     0.989450000000     0.195360000000    -0.0347032  
C343     C      0.263760000000     0.984790000000     0.264670000000    -0.00635495 
C344     C      0.287030000000     0.996680000000     0.334750000000    -0.0938249  
C345     C      0.203700000000     0.984210000000     0.205630000000    -0.00818584 
C346     C      0.176450000000     0.004200000000     0.138940000000    -0.093952   
C347     C      0.194140000000     0.979500000000     0.245950000000    -0.034662   
C348     C      0.147070000000     0.002280000000     0.109980000000     0.0734633  
C349     C      0.107750000000     0.960590000000     0.150950000000     0.104008   
C350     C      0.223700000000     0.979080000000     0.274870000000    -0.0357691  
C351     C      0.295350000000     0.984810000000     0.295760000000     0.048858   
C352     C      0.172100000000     0.983340000000     0.174560000000     0.0527902  
C353     C      0.830940000000     0.968350000000     0.180660000000    -0.107169   
C354     C      0.603610000000     0.987800000000     0.314320000000     0.0710231  
C355     C      0.653670000000     0.981070000000     0.363050000000     0.0708856  
C356     C      0.632070000000     0.988090000000     0.284310000000    -0.0929384  
C357     C      0.695400000000     0.966540000000     0.224850000000    -0.0359767  
C358     C      0.724270000000     0.966290000000     0.195140000000    -0.0345377  
C359     C      0.703090000000     0.984200000000     0.261890000000    -0.00777873 
C360     C      0.682890000000     0.980710000000     0.333700000000    -0.0928225  
C361     C      0.761670000000     0.983180000000     0.201930000000    -0.0112713  
C362     C      0.784830000000     0.991840000000     0.131900000000    -0.0981748  
C363     C      0.769480000000     0.000870000000     0.238780000000    -0.0334053  
C364     C      0.814890000000     0.990330000000     0.103520000000     0.0703361  
C365     C      0.860410000000     0.966060000000     0.151540000000     0.102507   
C366     C      0.740460000000     0.001630000000     0.268310000000    -0.0348324  
C367     C      0.672350000000     0.984360000000     0.293670000000     0.0486487  
C368     C      0.792920000000     0.981470000000     0.171090000000     0.0555767  
C369     C      0.996990000000     0.142080000000     0.789490000000    -0.108089   
C370     C      0.980320000000     0.370950000000     0.657310000000     0.0713373  
C371     C      0.986210000000     0.319960000000     0.609290000000     0.0715761  
C372     C      0.981000000000     0.342940000000     0.687830000000    -0.0931284  
C373     C      0.015190000000     0.242110000000     0.709600000000    -0.0350549  
C374     C      0.016540000000     0.213170000000     0.739160000000    -0.0329062  
C375     C      0.986710000000     0.272450000000     0.710920000000    -0.00792528 
C376     C      0.987450000000     0.291250000000     0.639110000000    -0.0931256  
C377     C      0.989120000000     0.213540000000     0.770590000000    -0.0112109  
C378     C      0.981910000000     0.188960000000     0.840690000000    -0.096334   
C379     C      0.961000000000     0.244330000000     0.772230000000    -0.0342294  
C380     C      0.982060000000     0.157980000000     0.868220000000     0.0706215  
C381     C      0.997610000000     0.111510000000     0.817550000000     0.102941   
C382     C      0.959910000000     0.273560000000     0.742780000000    -0.0364559  
C383     C      0.984910000000     0.302600000000     0.678920000000     0.0491634  
C384     C      0.989250000000     0.181210000000     0.800710000000     0.055504   
C385     C      0.977150000000     0.689780000000     0.630670000000    -0.106186   
C386     C      0.989900000000     0.819340000000     0.861080000000     0.072734   
C387     C      0.984680000000     0.869630000000     0.812230000000     0.0719138  
C388     C      0.989910000000     0.790070000000     0.831890000000    -0.093516   
C389     C      0.012680000000     0.737700000000     0.762090000000    -0.0351422  
C390     C      0.011800000000     0.708440000000     0.732780000000    -0.03297    
C391     C      0.986250000000     0.769890000000     0.760690000000    -0.00803472 
C392     C      0.984300000000     0.841040000000     0.782280000000    -0.0932943  
C393     C      0.984330000000     0.710630000000     0.701540000000    -0.011104   
C394     C      0.988530000000     0.639620000000     0.679710000000    -0.0970336  
C395     C      0.957790000000     0.742810000000     0.700300000000    -0.0342338  
C396     C      0.987700000000     0.610950000000     0.649950000000     0.0706924  
C397     C      0.975960000000     0.660530000000     0.601210000000     0.102744   
C398     C      0.958840000000     0.772180000000     0.729470000000    -0.0362002  
C399     C      0.986920000000     0.800740000000     0.791980000000     0.0497238  
C400     C      0.983460000000     0.679600000000     0.670260000000     0.0551917  
C401     C      0.979360000000     0.781940000000     0.130560000000    -0.106526   
C402     C      0.987940000000     0.653200000000     0.361840000000     0.0689108  
C403     C      0.986650000000     0.602890000000     0.312760000000     0.0707871  
C404     C      0.987540000000     0.682550000000     0.332700000000    -0.094243   
C405     C      0.009650000000     0.736630000000     0.264080000000    -0.0349261  
C406     C      0.008550000000     0.765790000000     0.234670000000    -0.0329113  
C407     C      0.985400000000     0.702810000000     0.261360000000    -0.00813328 
C408     C      0.986020000000     0.631530000000     0.282850000000    -0.093303   
C409     C      0.983100000000     0.761850000000     0.201930000000    -0.0110325  
C410     C      0.983940000000     0.832890000000     0.179830000000    -0.0968454  
C411     C      0.958710000000     0.728090000000     0.199360000000    -0.0342955  
C412     C      0.983370000000     0.861310000000     0.149840000000     0.0727531  
C413     C      0.978510000000     0.810930000000     0.100810000000     0.104243   
C414     C      0.959930000000     0.698870000000     0.228680000000    -0.0362796  
C415     C      0.986430000000     0.671910000000     0.292660000000     0.048991   
C416     C      0.982230000000     0.792640000000     0.170400000000     0.0558139  
C417     C      0.971040000000     0.132380000000     0.186990000000    -0.106349   
C418     C      0.984370000000     0.362950000000     0.317590000000     0.0711192  
C419     C      0.979100000000     0.313830000000     0.367540000000     0.0706637  
C420     C      0.983780000000     0.333840000000     0.288190000000    -0.0932119  
C421     C      0.999370000000     0.225980000000     0.273290000000    -0.0374099  
C422     C      0.998840000000     0.196690000000     0.243960000000    -0.0361605  
C423     C      0.979850000000     0.262390000000     0.267390000000    -0.00630301 
C424     C      0.978210000000     0.283940000000     0.338820000000    -0.0929458  
C425     C      0.978990000000     0.203180000000     0.207930000000    -0.0090687  
C426     C      0.984260000000     0.181260000000     0.137140000000    -0.096311   
C427     C      0.959570000000     0.239560000000     0.201910000000    -0.0350414  
C428     C      0.983890000000     0.151350000000     0.108560000000     0.0691957  
C429     C      0.970210000000     0.102790000000     0.157810000000     0.103464   
C430     C      0.959870000000     0.268750000000     0.231330000000    -0.0362936  
C431     C      0.980580000000     0.293720000000     0.298520000000     0.0483316  
C432     C      0.978250000000     0.171890000000     0.176930000000     0.0542971  
H1       H      0.927380000000     0.926600000000     0.038040000000     0.21197    
H2       H      0.039150000000     0.041860000000     0.043800000000     0.210828   
H3       H      0.927700000000     0.043630000000     0.928160000000     0.210428   
H4       H      0.043140000000     0.931720000000     0.927090000000     0.211655   
H5       H      0.929390000000     0.542070000000     0.425780000000     0.211023   
H6       H      0.041040000000     0.426850000000     0.430160000000     0.210807   
H7       H      0.926880000000     0.431740000000     0.541960000000     0.212078   
H8       H      0.041540000000     0.543740000000     0.540790000000     0.212011   
H9       H      0.428520000000     0.927230000000     0.429220000000     0.209948   
H10      H      0.540640000000     0.042300000000     0.426180000000     0.209669   
H11      H      0.541990000000     0.931790000000     0.542690000000     0.210306   
H12      H      0.427050000000     0.043930000000     0.539480000000     0.212225   
H13      H      0.539860000000     0.429810000000     0.925900000000     0.210462   
H14      H      0.427350000000     0.429030000000     0.040500000000     0.210921   
H15      H      0.428280000000     0.545300000000     0.929600000000     0.210121   
H16      H      0.542870000000     0.540630000000     0.041930000000     0.209737   
H17      H      0.485890000000     0.071980000000     0.303190000000     0.02387    
H18      H      0.475830000000     0.392380000000     0.159270000000     0.0234087  
H19      H      0.434050000000     0.237250000000     0.285770000000     0.0374752  
H20      H      0.532670000000     0.227700000000     0.177250000000     0.0368075  
H21      H      0.475120000000     0.342600000000     0.210170000000     0.0522036  
H22      H      0.530580000000     0.176280000000     0.227950000000     0.0375547  
H23      H      0.496070000000     0.252340000000     0.122750000000     0.0570707  
H24      H      0.485760000000     0.122050000000     0.251610000000     0.0520853  
H25      H      0.477110000000     0.213220000000     0.340780000000     0.0517329  
H26      H      0.435480000000     0.288390000000     0.234600000000     0.0365891  
H27      H      0.477110000000     0.162770000000     0.391680000000     0.0235831  
H28      H      0.547110000000     0.295930000000     0.050290000000     0.0401885  
H29      H      0.490250000000     0.572310000000     0.165300000000     0.0233425  
H30      H      0.478300000000     0.892080000000     0.309900000000     0.0234249  
H31      H      0.438970000000     0.737310000000     0.182780000000     0.0378372  
H32      H      0.537270000000     0.727910000000     0.291620000000     0.0363913  
H33      H      0.478530000000     0.842470000000     0.258940000000     0.052119   
H34      H      0.535690000000     0.676700000000     0.240650000000     0.0371995  
H35      H      0.500760000000     0.752320000000     0.346170000000     0.056785   
H36      H      0.490700000000     0.622370000000     0.216860000000     0.0517119  
H37      H      0.482610000000     0.713610000000     0.127720000000     0.0520074  
H38      H      0.439800000000     0.788150000000     0.234210000000     0.0365368  
H39      H      0.482120000000     0.663140000000     0.076790000000     0.0240818  
H40      H      0.550720000000     0.796720000000     0.419220000000     0.0396614  
H41      H      0.507450000000     0.664520000000     0.896640000000     0.0240088  
H42      H      0.521040000000     0.820660000000     0.584880000000     0.0210435  
H43      H      0.477870000000     0.759540000000     0.808240000000     0.0360673  
H44      H      0.496220000000     0.720570000000     0.667980000000     0.0361035  
H45      H      0.525600000000     0.771140000000     0.635880000000     0.0521008  
H46      H      0.499720000000     0.670350000000     0.718580000000     0.0365126  
H47      H      0.446050000000     0.839880000000     0.708610000000     0.0566899  
H48      H      0.510430000000     0.715690000000     0.846810000000     0.0510216  
H49      H      0.465010000000     0.632250000000     0.760680000000     0.0512467  
H50      H      0.479990000000     0.810490000000     0.758100000000     0.0356914  
H51      H      0.465810000000     0.581260000000     0.810400000000     0.0228027  
H52      H      0.449870000000     0.935710000000     0.678870000000     0.0384757  
H53      H      0.501560000000     0.398570000000     0.805940000000     0.0228542  
H54      H      0.520170000000     0.087620000000     0.649800000000     0.0237217  
H55      H      0.471560000000     0.309940000000     0.711560000000     0.036242   
H56      H      0.492440000000     0.169670000000     0.750060000000     0.0358017  
H57      H      0.523160000000     0.138550000000     0.699590000000     0.0524065  
H58      H      0.494730000000     0.220260000000     0.800420000000     0.0361471  
H59      H      0.442290000000     0.209820000000     0.630850000000     0.0568058  
H60      H      0.504120000000     0.348700000000     0.754970000000     0.0509568  
H61      H      0.459910000000     0.262260000000     0.838750000000     0.0513167  
H62      H      0.474910000000     0.259980000000     0.660580000000     0.035875   
H63      H      0.461160000000     0.312200000000     0.889680000000     0.0242822  
H64      H      0.447440000000     0.180690000000     0.535060000000     0.0397019  
H65      H      0.571720000000     0.165960000000     0.492910000000     0.0242767  
H66      H      0.888720000000     0.312440000000     0.467860000000     0.0235035  
H67      H      0.745900000000     0.173430000000     0.520410000000     0.036779   
H68      H      0.717810000000     0.305530000000     0.461930000000     0.037392   
H69      H      0.838380000000     0.261540000000     0.469160000000     0.0530074  
H70      H      0.667100000000     0.254060000000     0.459210000000     0.0367404  
H71      H      0.755000000000     0.345140000000     0.516790000000     0.0544774  
H72      H      0.621370000000     0.217410000000     0.496350000000     0.051429   
H73      H      0.712430000000     0.129120000000     0.478850000000     0.0512396  
H74      H      0.796970000000     0.224570000000     0.521440000000     0.0368496  
H75      H      0.662220000000     0.078180000000     0.477390000000     0.0235219  
H76      H      0.761820000000     0.418220000000     0.532560000000     0.0291787  
H77      H      0.664180000000     0.897640000000     0.478500000000     0.0234946  
H78      H      0.809700000000     0.578610000000     0.498620000000     0.0253654  
H79      H      0.670770000000     0.723670000000     0.453520000000     0.036488   
H80      H      0.800330000000     0.750240000000     0.517660000000     0.0369487  
H81      H      0.758330000000     0.628140000000     0.500760000000     0.0531692  
H82      H      0.749010000000     0.801160000000     0.519150000000     0.0367286  
H83      H      0.842050000000     0.717210000000     0.465240000000     0.0570632  
H84      H      0.715050000000     0.847180000000     0.477920000000     0.0513323  
H85      H      0.625390000000     0.757520000000     0.495330000000     0.0508796  
H86      H      0.721840000000     0.672510000000     0.453040000000     0.0367208  
H87      H      0.575130000000     0.808440000000     0.494560000000     0.0227748  
H88      H      0.910130000000     0.669820000000     0.411190000000     0.0375342  
H89      H      0.393950000000     0.164130000000     0.473730000000     0.0231085  
H90      H      0.160280000000     0.394630000000     0.481030000000     0.0263744  
H91      H      0.287540000000     0.240660000000     0.436140000000     0.0373076  
H92      H      0.181140000000     0.230230000000     0.537000000000     0.0371802  
H93      H      0.211900000000     0.345620000000     0.480170000000     0.0529345  
H94      H      0.232020000000     0.179040000000     0.533630000000     0.0376114  
H95      H      0.125750000000     0.253940000000     0.500110000000     0.0568373  
H96      H      0.343710000000     0.215260000000     0.475690000000     0.051579   
H97      H      0.253880000000     0.125210000000     0.488830000000     0.0519132  
H98      H      0.236320000000     0.291720000000     0.439110000000     0.0368605  
H99      H      0.304790000000     0.074600000000     0.487370000000     0.0236228  
H100     H      0.035790000000     0.286050000000     0.475550000000     0.0373371  
H101     H      0.306850000000     0.893890000000     0.483310000000     0.0234745  
H102     H      0.162760000000     0.573370000000     0.494660000000     0.0218733  
H103     H      0.225690000000     0.794740000000     0.525100000000     0.0372139  
H104     H      0.251630000000     0.669020000000     0.453080000000     0.0368389  
H105     H      0.215110000000     0.621870000000     0.497890000000     0.0522445  
H106     H      0.302490000000     0.720490000000     0.454280000000     0.0372748  
H107     H      0.131900000000     0.714190000000     0.470510000000     0.0575849  
H108     H      0.257040000000     0.842400000000     0.483420000000     0.0514777  
H109     H      0.348980000000     0.754250000000     0.495600000000     0.0522253  
H110     H      0.174700000000     0.743580000000     0.523100000000     0.037745   
H111     H      0.398210000000     0.806270000000     0.494170000000     0.0258497  
H112     H      0.060640000000     0.672130000000     0.417160000000     0.039015   
H113     H      0.664470000000     0.482930000000     0.073100000000     0.0235245  
H114     H      0.808510000000     0.475800000000     0.393180000000     0.0257596  
H115     H      0.745580000000     0.439960000000     0.172560000000     0.0368777  
H116     H      0.723880000000     0.517390000000     0.295690000000     0.036659   
H117     H      0.756910000000     0.473090000000     0.344180000000     0.0528439  
H118     H      0.672860000000     0.517080000000     0.244570000000     0.0367049  
H119     H      0.843050000000     0.489440000000     0.252100000000     0.0568825  
H120     H      0.715230000000     0.482210000000     0.123720000000     0.0512568  
H121     H      0.624460000000     0.475260000000     0.213440000000     0.0515323  
H122     H      0.796760000000     0.440740000000     0.223550000000     0.0367458  
H123     H      0.574420000000     0.477050000000     0.162390000000     0.0239027  
H124     H      0.932750000000     0.463260000000     0.285350000000     0.0384102  
H125     H      0.306550000000     0.491900000000     0.074780000000     0.0241714  
H126     H      0.076320000000     0.491670000000     0.308620000000     0.024717   
H127     H      0.297540000000     0.523610000000     0.246850000000     0.0373018  
H128     H      0.173090000000     0.448780000000     0.223440000000     0.036929   
H129     H      0.125530000000     0.493560000000     0.257190000000     0.0529153  
H130     H      0.224150000000     0.449570000000     0.172340000000     0.0371416  
H131     H      0.216870000000     0.473100000000     0.343270000000     0.057025   
H132     H      0.255650000000     0.492400000000     0.125030000000     0.0518164  
H133     H      0.345640000000     0.481560000000     0.215150000000     0.0512908  
H134     H      0.246630000000     0.522340000000     0.298070000000     0.0370307  
H135     H      0.396090000000     0.482140000000     0.164250000000     0.0231933  
H136     H      0.184160000000     0.498430000000     0.433480000000     0.0387661  
H137     H      0.392640000000     0.483700000000     0.806700000000     0.0239211  
H138     H      0.072620000000     0.494710000000     0.663160000000     0.0239147  
H139     H      0.226620000000     0.533770000000     0.793250000000     0.0372299  
H140     H      0.235580000000     0.435060000000     0.684630000000     0.0374639  
H141     H      0.120940000000     0.494160000000     0.715510000000     0.0523444  
H142     H      0.287020000000     0.436950000000     0.735180000000     0.0380263  
H143     H      0.213190000000     0.473310000000     0.630360000000     0.0568296  
H144     H      0.341170000000     0.482660000000     0.756700000000     0.0519359  
H145     H      0.252710000000     0.491550000000     0.848380000000     0.0518429  
H146     H      0.175400000000     0.532560000000     0.742140000000     0.0363563  
H147     H      0.304650000000     0.492650000000     0.897800000000     0.023496   
H148     H      0.182820000000     0.499390000000     0.540380000000     0.0356797  
H149     H      0.572550000000     0.501050000000     0.805520000000     0.0243888  
H150     H      0.876430000000     0.536580000000     0.642670000000     0.0222175  
H151     H      0.749140000000     0.511530000000     0.798080000000     0.0367615  
H152     H      0.713890000000     0.466370000000     0.662840000000     0.0360286  
H153     H      0.823860000000     0.539640000000     0.691320000000     0.0528284  
H154     H      0.663970000000     0.464640000000     0.714600000000     0.0362971  
H155     H      0.771220000000     0.434960000000     0.639890000000     0.0547991  
H156     H      0.622020000000     0.502220000000     0.753950000000     0.0512988  
H157     H      0.711620000000     0.473450000000     0.840650000000     0.0510239  
H158     H      0.799800000000     0.509700000000     0.747470000000     0.0362474  
H159     H      0.661760000000     0.474710000000     0.891800000000     0.023131   
H160     H      0.822250000000     0.379660000000     0.605870000000     0.0341606  
H161     H      0.664810000000     0.573390000000     0.975450000000     0.0237176  
H162     H      0.810110000000     0.892310000000     0.995320000000     0.0230403  
H163     H      0.751820000000     0.669630000000     0.011640000000     0.0379885  
H164     H      0.722180000000     0.798760000000     0.947540000000     0.0371336  
H165     H      0.759250000000     0.842160000000     0.996550000000     0.052561   
H166     H      0.671330000000     0.747440000000     0.949110000000     0.0368972  
H167     H      0.842830000000     0.755730000000     0.954670000000     0.0570876  
H168     H      0.715960000000     0.623510000000     0.972890000000     0.0511595  
H169     H      0.627330000000     0.713910000000     0.991770000000     0.0510687  
H170     H      0.802970000000     0.720690000000     0.008770000000     0.0379092  
H171     H      0.576750000000     0.663360000000     0.992620000000     0.0231446  
H172     H      0.936240000000     0.787280000000     0.967510000000     0.0362624  
H173     H      0.661220000000     0.392960000000     0.989870000000     0.0233615  
H174     H      0.805960000000     0.073800000000     0.975550000000     0.0228374  
H175     H      0.730270000000     0.286070000000     0.037260000000     0.0374778  
H176     H      0.727980000000     0.177200000000     0.938330000000     0.036315   
H177     H      0.753320000000     0.121850000000     0.976060000000     0.0520286  
H178     H      0.676500000000     0.228120000000     0.936650000000     0.0372414  
H179     H      0.837190000000     0.213850000000     0.003200000000     0.0580781  
H180     H      0.710950000000     0.341270000000     0.991670000000     0.051419   
H181     H      0.619400000000     0.253200000000     0.977380000000     0.0512965  
H182     H      0.781160000000     0.234880000000     0.039620000000     0.0362558  
H183     H      0.570160000000     0.305500000000     0.975360000000     0.0230424  
H184     H      0.910580000000     0.170040000000     0.053520000000     0.0401058  
H185     H      0.307620000000     0.579310000000     0.984410000000     0.0231441  
H186     H      0.162530000000     0.898880000000     0.998240000000     0.023985   
H187     H      0.226590000000     0.677940000000     0.026860000000     0.037506   
H188     H      0.251960000000     0.804160000000     0.955540000000     0.0365359  
H189     H      0.215030000000     0.850570000000     0.001630000000     0.0547648  
H190     H      0.303060000000     0.752930000000     0.956430000000     0.0367589  
H191     H      0.132760000000     0.758330000000     0.971320000000     0.0575449  
H192     H      0.257830000000     0.630720000000     0.985080000000     0.0511001  
H193     H      0.349830000000     0.718890000000     0.996900000000     0.0512423  
H194     H      0.175300000000     0.728810000000     0.024980000000     0.0378492  
H195     H      0.399090000000     0.666880000000     0.994800000000     0.0236313  
H196     H      0.039980000000     0.787600000000     0.988890000000     0.0412461  
H197     H      0.304060000000     0.398810000000     0.986670000000     0.023361   
H198     H      0.160360000000     0.078210000000     0.980100000000     0.0258218  
H199     H      0.221370000000     0.299550000000     0.946130000000     0.0373763  
H200     H      0.244960000000     0.175850000000     0.022320000000     0.0368497  
H201     H      0.211600000000     0.127650000000     0.977850000000     0.0526809  
H202     H      0.295910000000     0.227140000000     0.021090000000     0.0374531  
H203     H      0.125120000000     0.218980000000     0.997370000000     0.0570338  
H204     H      0.253050000000     0.348340000000     0.987580000000     0.0514518  
H205     H      0.343130000000     0.258010000000     0.977770000000     0.051705   
H206     H      0.170280000000     0.248410000000     0.947850000000     0.0373665  
H207     H      0.393440000000     0.308890000000     0.977960000000     0.0246664  
H208     H      0.035180000000     0.185820000000     0.971870000000     0.0392762  
H209     H      0.663560000000     0.987980000000     0.573690000000     0.0233287  
H210     H      0.808550000000     0.994880000000     0.892840000000     0.0231881  
H211     H      0.745170000000     0.030210000000     0.672650000000     0.0370933  
H212     H      0.723480000000     0.952970000000     0.795880000000     0.0368961  
H213     H      0.756920000000     0.997330000000     0.843940000000     0.0521045  
H214     H      0.672080000000     0.953890000000     0.745130000000     0.0369238  
H215     H      0.842820000000     0.979670000000     0.751860000000     0.057027   
H216     H      0.714330000000     0.988180000000     0.624160000000     0.0511328  
H217     H      0.623810000000     0.996090000000     0.714050000000     0.051087   
H218     H      0.796710000000     0.028800000000     0.723240000000     0.0369003  
H219     H      0.573620000000     0.994810000000     0.663020000000     0.0231784  
H220     H      0.932780000000     0.005450000000     0.784660000000     0.0403739  
H221     H      0.394840000000     0.995950000000     0.662930000000     0.0229655  
H222     H      0.075940000000     0.983090000000     0.808450000000     0.023401   
H223     H      0.229640000000     0.942930000000     0.679620000000     0.0375362  
H224     H      0.239160000000     0.042270000000     0.787650000000     0.0368726  
H225     H      0.124630000000     0.983800000000     0.756620000000     0.0521239  
H226     H      0.290030000000     0.040540000000     0.736450000000     0.0375936  
H227     H      0.216240000000     0.004150000000     0.842570000000     0.0585834  
H228     H      0.344290000000     0.997120000000     0.713750000000     0.05153    
H229     H      0.254540000000     0.983330000000     0.623910000000     0.0515534  
H230     H      0.178930000000     0.944260000000     0.731120000000     0.0366045  
H231     H      0.305670000000     0.981640000000     0.573690000000     0.0236787  
H232     H      0.184870000000     0.977440000000     0.932200000000     0.0366338  
H233     H      0.308600000000     0.005080000000     0.393280000000     0.025551   
H234     H      0.151770000000     0.019370000000     0.083140000000     0.0219061  
H235     H      0.214850000000     0.973860000000     0.305220000000     0.0360352  
H236     H      0.252840000000     0.992480000000     0.164760000000     0.0357628  
H237     H      0.202120000000     0.022600000000     0.133340000000     0.0522337  
H238     H      0.303430000000     0.995730000000     0.215080000000     0.0362155  
H239     H      0.133620000000     0.943000000000     0.206220000000     0.0565213  
H240     H      0.258000000000     0.007350000000     0.343180000000     0.0528207  
H241     H      0.342300000000     0.962320000000     0.257780000000     0.0508607  
H242     H      0.163720000000     0.976250000000     0.255530000000     0.0359504  
H243     H      0.392940000000     0.963870000000     0.308010000000     0.0221228  
H244     H      0.037620000000     0.948820000000     0.178380000000     0.0385907  
H245     H      0.663330000000     0.978040000000     0.393530000000     0.0233314  
H246     H      0.807310000000     0.000020000000     0.073840000000     0.0257094  
H247     H      0.747290000000     0.016240000000     0.296040000000     0.0367784  
H248     H      0.717660000000     0.952010000000     0.167150000000     0.0368404  
H249     H      0.755580000000     0.001960000000     0.123330000000     0.0544289  
H250     H      0.667320000000     0.952170000000     0.218950000000     0.0369468  
H251     H      0.837280000000     0.958420000000     0.210560000000     0.0572828  
H252     H      0.713520000000     0.977000000000     0.342480000000     0.0509694  
H253     H      0.622390000000     0.991770000000     0.253950000000     0.0510677  
H254     H      0.797970000000     0.014480000000     0.244620000000     0.0369755  
H255     H      0.572900000000     0.990900000000     0.305420000000     0.0233336  
H256     H      0.931290000000     0.968530000000     0.180520000000     0.0379434  
H257     H      0.988260000000     0.309690000000     0.578930000000     0.0251792  
H258     H      0.975630000000     0.165870000000     0.898690000000     0.0236944  
H259     H      0.937450000000     0.296470000000     0.744410000000     0.0373744  
H260     H      0.039240000000     0.190520000000     0.737400000000     0.0367306  
H261     H      0.976350000000     0.218910000000     0.850900000000     0.0522449  
H262     H      0.036700000000     0.240940000000     0.685810000000     0.0382235  
H263     H      0.002710000000     0.135130000000     0.758660000000     0.0583232  
H264     H      0.990050000000     0.260260000000     0.630960000000     0.0519729  
H265     H      0.979190000000     0.352950000000     0.718280000000     0.0521425  
H266     H      0.939170000000     0.245330000000     0.795710000000     0.0365486  
H267     H      0.977580000000     0.401870000000     0.665740000000     0.0243566  
H268     H      0.053130000000     0.061680000000     0.801780000000     0.0412727  
H269     H      0.982630000000     0.900470000000     0.803320000000     0.0249348  
H270     H      0.992340000000     0.580510000000     0.659280000000     0.0230779  
H271     H      0.937710000000     0.796340000000     0.727970000000     0.0379864  
H272     H      0.033060000000     0.684400000000     0.734310000000     0.0365045  
H273     H      0.992820000000     0.630280000000     0.710110000000     0.0518685  
H274     H      0.034440000000     0.735410000000     0.785570000000     0.0375096  
H275     H      0.973120000000     0.720640000000     0.622530000000     0.0570515  
H276     H      0.982350000000     0.850520000000     0.751670000000     0.0520233  
H277     H      0.991610000000     0.759180000000     0.840650000000     0.0521624  
H278     H      0.935760000000     0.745060000000     0.677080000000     0.0365587  
H279     H      0.992120000000     0.809530000000     0.891580000000     0.025208   
H280     H      0.923390000000     0.677090000000     0.548580000000     0.0419385  
H281     H      0.986320000000     0.572020000000     0.303720000000     0.0244591  
H282     H      0.984780000000     0.891990000000     0.159320000000     0.0241774  
H283     H      0.940420000000     0.673470000000     0.226090000000     0.0372772  
H284     H      0.028140000000     0.791120000000     0.237260000000     0.0370883  
H285     H      0.985340000000     0.842610000000     0.210390000000     0.0522937  
H286     H      0.029950000000     0.740270000000     0.288660000000     0.0374075  
H287     H      0.977910000000     0.750830000000     0.122450000000     0.0570908  
H288     H      0.985610000000     0.622040000000     0.252200000000     0.0519167  
H289     H      0.987420000000     0.713440000000     0.341590000000     0.051066   
H290     H      0.938250000000     0.724460000000     0.174910000000     0.0363757  
H291     H      0.988450000000     0.663000000000     0.392410000000     0.023253   
H292     H      0.931590000000     0.790650000000     0.044390000000     0.0378497  
H293     H      0.977070000000     0.304770000000     0.398300000000     0.0221749  
H294     H      0.989630000000     0.160520000000     0.078320000000     0.024818   
H295     H      0.943930000000     0.296120000000     0.225990000000     0.0367598  
H296     H      0.014500000000     0.169130000000     0.249260000000     0.0388984  
H297     H      0.990050000000     0.211560000000     0.128080000000     0.0524378  
H298     H      0.015630000000     0.220270000000     0.300350000000     0.0383766  
H299     H      0.964970000000     0.124650000000     0.217580000000     0.0571115  
H300     H      0.975150000000     0.253370000000     0.348240000000     0.0508879  
H301     H      0.986380000000     0.342860000000     0.257510000000     0.0509982  
H302     H      0.943540000000     0.245200000000     0.174690000000     0.0363434  
H303     H      0.986960000000     0.393530000000     0.307930000000     0.0225786  
H304     H      0.915960000000     0.051060000000     0.172310000000     0.0409494  
N1       N      0.486860000000     0.352110000000     0.110870000000    -0.195595   
N2       N      0.481660000000     0.113440000000     0.351420000000    -0.19264    
N3       N      0.489870000000     0.851900000000     0.358280000000    -0.195551   
N4       N      0.486200000000     0.613790000000     0.117050000000    -0.192511   
N5       N      0.483120000000     0.859900000000     0.617630000000    -0.197906   
N6       N      0.486640000000     0.619000000000     0.857290000000    -0.19337    
N7       N      0.481710000000     0.119750000000     0.610620000000    -0.198115   
N8       N      0.481450000000     0.359130000000     0.851700000000    -0.193484   
N9       N      0.851330000000     0.358860000000     0.490630000000    -0.195604   
N10      N      0.613070000000     0.118060000000     0.485030000000    -0.19247    
N11      N      0.856400000000     0.618530000000     0.480990000000    -0.196047   
N12      N      0.615700000000     0.856990000000     0.486380000000    -0.192803   
N13      N      0.112310000000     0.353560000000     0.491200000000    -0.195102   
N14      N      0.353350000000     0.115410000000     0.480810000000    -0.192407   
N15      N      0.116140000000     0.615050000000     0.481300000000    -0.195319   
N16      N      0.356410000000     0.854150000000     0.488590000000    -0.192115   
N17      N      0.856600000000     0.483910000000     0.351860000000    -0.195111   
N18      N      0.615500000000     0.480250000000     0.113750000000    -0.192234   
N19      N      0.117290000000     0.481750000000     0.356660000000    -0.195447   
N20      N      0.355300000000     0.486940000000     0.115560000000    -0.192358   
N21      N      0.114030000000     0.483730000000     0.615780000000    -0.195245   
N22      N      0.352690000000     0.488120000000     0.856130000000    -0.192453   
N23      N      0.853190000000     0.485810000000     0.612490000000    -0.198272   
N24      N      0.613270000000     0.487880000000     0.852690000000    -0.191903   
N25      N      0.856640000000     0.853650000000     0.974780000000    -0.196196   
N26      N      0.616800000000     0.614440000000     0.984050000000    -0.192717   
N27      N      0.852680000000     0.115130000000     0.989510000000    -0.195948   
N28      N      0.611810000000     0.353260000000     0.982750000000    -0.192828   
N29      N      0.116390000000     0.857230000000     0.983250000000    -0.195724   
N30      N      0.357230000000     0.619050000000     0.989420000000    -0.192576   
N31      N      0.112080000000     0.119140000000     0.989350000000    -0.195193   
N32      N      0.352700000000     0.357830000000     0.982440000000    -0.192629   
N33      N      0.856560000000     0.986210000000     0.851520000000    -0.195259   
N34      N      0.614630000000     0.991190000000     0.614380000000    -0.19245    
N35      N      0.116940000000     0.993650000000     0.856330000000    -0.196319   
N36      N      0.354250000000     0.988630000000     0.614360000000    -0.192195   
N37      N      0.112580000000     0.981480000000     0.116030000000    -0.19802    
N38      N      0.354600000000     0.984380000000     0.354460000000    -0.193213   
N39      N      0.852800000000     0.978600000000     0.113110000000    -0.196084   
N40      N      0.614230000000     0.984450000000     0.353500000000    -0.19235    
N41      N      0.989190000000     0.119240000000     0.857150000000    -0.195428   
N42      N      0.983010000000     0.359640000000     0.618240000000    -0.191968   
N43      N      0.982010000000     0.620820000000     0.610730000000    -0.195789   
N44      N      0.987220000000     0.858910000000     0.851440000000    -0.192714   
N45      N      0.981440000000     0.851010000000     0.110340000000    -0.195261   
N46      N      0.987430000000     0.613580000000     0.352060000000    -0.192715   
N47      N      0.977610000000     0.112110000000     0.118350000000    -0.195232   
N48      N      0.982100000000     0.353140000000     0.357080000000    -0.192518   
O1       O      0.980320000000     0.096230000000     0.052090000000    -0.373659   
O2       O      0.984300000000     0.871730000000     0.045330000000    -0.375411   
O3       O      0.918390000000     0.981020000000     0.095390000000    -0.375461   
O4       O      0.047310000000     0.980390000000     0.097320000000    -0.374506   
O5       O      0.095910000000     0.986410000000     0.050650000000    -0.378334   
O6       O      0.870850000000     0.982170000000     0.047490000000    -0.374468   
O7       O      0.982310000000     0.917510000000     0.094610000000    -0.374617   
O8       O      0.980690000000     0.046900000000     0.098040000000    -0.374323   
O9       O      0.024870000000     0.945130000000     0.023970000000    -0.506561   
O10      O      0.943170000000     0.024070000000     0.024860000000    -0.505245   
O11      O      0.943940000000     0.944020000000     0.022500000000    -0.653447   
O12      O      0.023290000000     0.025550000000     0.026420000000    -0.649908   
O13      O      0.987190000000     0.875390000000     0.917160000000    -0.377247   
O14      O      0.985640000000     0.100350000000     0.922730000000    -0.373547   
O15      O      0.873100000000     0.919640000000     0.979160000000    -0.375523   
O16      O      0.098010000000     0.923030000000     0.984720000000    -0.375536   
O17      O      0.095780000000     0.052760000000     0.987650000000    -0.374089   
O18      O      0.870850000000     0.049340000000     0.986140000000    -0.376837   
O19      O      0.921870000000     0.987560000000     0.871350000000    -0.374892   
O20      O      0.050870000000     0.990840000000     0.873150000000    -0.374962   
O21      O      0.873070000000     0.985590000000     0.917700000000    -0.375716   
O22      O      0.097500000000     0.990690000000     0.921700000000    -0.375593   
O23      O      0.921860000000     0.872940000000     0.977890000000    -0.375256   
O24      O      0.918360000000     0.097120000000     0.987360000000    -0.377306   
O25      O      0.046910000000     0.099100000000     0.988180000000    -0.375994   
O26      O      0.050610000000     0.875100000000     0.983080000000    -0.374194   
O27      O      0.986260000000     0.924290000000     0.870400000000    -0.375999   
O28      O      0.986820000000     0.053350000000     0.874490000000    -0.376016   
O29      O      0.024570000000     0.027720000000     0.946140000000    -0.506477   
O30      O      0.945460000000     0.946600000000     0.942730000000    -0.5077     
O31      O      0.944050000000     0.026760000000     0.944520000000    -0.650414   
O32      O      0.026140000000     0.947540000000     0.943820000000    -0.65439    
O33      O      0.981910000000     0.371910000000     0.422520000000    -0.37625    
O34      O      0.987050000000     0.596850000000     0.417770000000    -0.37711    
O35      O      0.921860000000     0.483520000000     0.371700000000    -0.375266   
O36      O      0.051050000000     0.482790000000     0.373180000000    -0.375558   
O37      O      0.097480000000     0.483370000000     0.421880000000    -0.376812   
O38      O      0.873140000000     0.485300000000     0.418100000000    -0.374322   
O39      O      0.987050000000     0.548120000000     0.370810000000    -0.375753   
O40      O      0.984490000000     0.418920000000     0.373860000000    -0.377743   
O41      O      0.025820000000     0.524740000000     0.443990000000    -0.510032   
O42      O      0.944180000000     0.445520000000     0.444660000000    -0.506321   
O43      O      0.945460000000     0.525660000000     0.442860000000    -0.656231   
O44      O      0.024540000000     0.444080000000     0.445990000000    -0.6526     
O45      O      0.984180000000     0.600100000000     0.545830000000    -0.375027   
O46      O      0.983320000000     0.375540000000     0.552120000000    -0.373471   
O47      O      0.873030000000     0.552390000000     0.483140000000    -0.377896   
O48      O      0.097820000000     0.549200000000     0.483490000000    -0.375157   
O49      O      0.095590000000     0.419750000000     0.488760000000    -0.373569   
O50      O      0.870730000000     0.423730000000     0.485470000000    -0.373366   
O51      O      0.918390000000     0.491600000000     0.596120000000    -0.374182   
O52      O      0.048060000000     0.486630000000     0.598000000000    -0.374138   
O53      O      0.871480000000     0.483720000000     0.547670000000    -0.371933   
O54      O      0.095460000000     0.484880000000     0.550290000000    -0.378255   
O55      O      0.921700000000     0.599060000000     0.481540000000    -0.374405   
O56      O      0.917390000000     0.374890000000     0.487670000000    -0.376789   
O57      O      0.046970000000     0.373100000000     0.488740000000    -0.375624   
O58      O      0.050390000000     0.597040000000     0.482000000000    -0.373266   
O59      O      0.983020000000     0.554320000000     0.595200000000    -0.377513   
O60      O      0.982240000000     0.424750000000     0.598680000000    -0.376256   
O61      O      0.022910000000     0.446650000000     0.526010000000    -0.504495   
O62      O      0.944100000000     0.527860000000     0.523330000000    -0.508136   
O63      O      0.943560000000     0.447840000000     0.525190000000    -0.652715   
O64      O      0.024960000000     0.526960000000     0.524580000000    -0.654695   
O65      O      0.597060000000     0.985030000000     0.419330000000    -0.375208   
O66      O      0.372410000000     0.986470000000     0.419800000000    -0.377246   
O67      O      0.487400000000     0.918330000000     0.374020000000    -0.375339   
O68      O      0.483020000000     0.048000000000     0.370330000000    -0.374593   
O69      O      0.482430000000     0.096880000000     0.417150000000    -0.378619   
O70      O      0.487320000000     0.872390000000     0.423290000000    -0.374932   
O71      O      0.420090000000     0.981890000000     0.371970000000    -0.378403   
O72      O      0.548900000000     0.984550000000     0.371820000000    -0.377266   
O73      O      0.444040000000     0.024750000000     0.443210000000    -0.506749   
O74      O      0.525170000000     0.945500000000     0.445280000000    -0.507984   
O75      O      0.444760000000     0.944480000000     0.445280000000    -0.65262    
O76      O      0.524360000000     0.025870000000     0.443040000000    -0.651384   
O77      O      0.372110000000     0.985960000000     0.548900000000    -0.376172   
O78      O      0.597000000000     0.989240000000     0.548770000000    -0.375885   
O79      O      0.421610000000     0.873140000000     0.488510000000    -0.375912   
O80      O      0.418910000000     0.097910000000     0.480060000000    -0.375343   
O81      O      0.547740000000     0.099410000000     0.484090000000    -0.376771   
O82      O      0.550160000000     0.874530000000     0.487270000000    -0.376948   
O83      O      0.482000000000     0.924960000000     0.598280000000    -0.376582   
O84      O      0.485710000000     0.054010000000     0.594820000000    -0.376719   
O85      O      0.486430000000     0.875790000000     0.551960000000    -0.377687   
O86      O      0.480940000000     0.100340000000     0.545700000000    -0.377006   
O87      O      0.372970000000     0.920180000000     0.485990000000    -0.376447   
O88      O      0.597720000000     0.922630000000     0.484630000000    -0.375852   
O89      O      0.596260000000     0.052170000000     0.483400000000    -0.376388   
O90      O      0.371400000000     0.049790000000     0.483060000000    -0.374892   
O91      O      0.419890000000     0.989590000000     0.596660000000    -0.37529    
O92      O      0.549090000000     0.990170000000     0.596560000000    -0.377282   
O93      O      0.524330000000     0.027810000000     0.523180000000    -0.506616   
O94      O      0.444870000000     0.946940000000     0.525580000000    -0.50859    
O95      O      0.525380000000     0.947760000000     0.525710000000    -0.653203   
O96      O      0.443800000000     0.027120000000     0.523470000000    -0.653751   
O97      O      0.370980000000     0.423450000000     0.984010000000    -0.375739   
O98      O      0.595540000000     0.419310000000     0.983690000000    -0.37647    
O99      O      0.479990000000     0.375610000000     0.917380000000    -0.376881   
O100     O      0.484450000000     0.372610000000     0.045920000000    -0.374584   
O101     O      0.486000000000     0.418600000000     0.095130000000    -0.375531   
O102     O      0.484140000000     0.424320000000     0.870530000000    -0.378512   
O103     O      0.546700000000     0.372490000000     0.981300000000    -0.377559   
O104     O      0.418280000000     0.375080000000     0.982020000000    -0.376919   
O105     O      0.524260000000     0.444630000000     0.023100000000    -0.506496   
O106     O      0.443200000000     0.447830000000     0.943710000000    -0.509045   
O107     O      0.523800000000     0.446330000000     0.942890000000    -0.653506   
O108     O      0.443920000000     0.445740000000     0.024200000000    -0.652802   
O109     O      0.598290000000     0.548940000000     0.983120000000    -0.376772   
O110     O      0.373590000000     0.553020000000     0.987220000000    -0.376392   
O111     O      0.548000000000     0.489780000000     0.871450000000    -0.374489   
O112     O      0.549980000000     0.481740000000     0.096130000000    -0.376574   
O113     O      0.420870000000     0.485110000000     0.097540000000    -0.37648    
O114     O      0.418630000000     0.487660000000     0.872890000000    -0.374871   
O115     O      0.488410000000     0.600020000000     0.922430000000    -0.375904   
O116     O      0.485980000000     0.597050000000     0.051320000000    -0.376219   
O117     O      0.483290000000     0.553280000000     0.873700000000    -0.379282   
O118     O      0.486180000000     0.548320000000     0.098310000000    -0.376037   
O119     O      0.596390000000     0.485060000000     0.918520000000    -0.375032   
O120     O      0.371420000000     0.488720000000     0.921320000000    -0.377383   
O121     O      0.372810000000     0.487880000000     0.050010000000    -0.376448   
O122     O      0.597670000000     0.482610000000     0.048130000000    -0.374549   
O123     O      0.551150000000     0.597420000000     0.986360000000    -0.37769    
O124     O      0.422400000000     0.599930000000     0.988190000000    -0.377091   
O125     O      0.445660000000     0.526070000000     0.025810000000    -0.50664    
O126     O      0.525110000000     0.526420000000     0.944850000000    -0.50731    
O127     O      0.444670000000     0.528100000000     0.945560000000    -0.653102   
O128     O      0.525950000000     0.524700000000     0.025220000000    -0.650173   
S1       S      0.506670000000     0.295190000000     0.053750000000    -0.0441603  
S2       S      0.510330000000     0.795190000000     0.415360000000    -0.045051   
S3       S      0.429860000000     0.905250000000     0.660870000000    -0.0411778  
S4       S      0.427700000000     0.162040000000     0.565240000000    -0.0502926  
S5       S      0.801950000000     0.412810000000     0.529380000000    -0.0276992  
S6       S      0.910670000000     0.673870000000     0.451570000000    -0.0471054  
S7       S      0.055780000000     0.295510000000     0.509600000000    -0.0444821  
S8       S      0.061910000000     0.673350000000     0.457700000000    -0.0405691  
S9       S      0.913460000000     0.498230000000     0.292980000000    -0.0485276  
S10      S      0.175380000000     0.464200000000     0.413380000000    -0.0492652  
S11      S      0.172770000000     0.465170000000     0.559890000000    -0.0423354  
S12      S      0.829200000000     0.413110000000     0.583840000000    -0.0486304  
S13      S      0.910160000000     0.801220000000     0.939760000000    -0.0417885  
S14      S      0.907460000000     0.172950000000     0.013160000000    -0.0445097  
S15      S      0.062900000000     0.799200000000     0.957470000000    -0.048231   
S16      S      0.055080000000     0.177310000000     0.006220000000    -0.0444241  
S17      S      0.913270000000     0.970750000000     0.792870000000    -0.0453922  
S18      S      0.174950000000     0.011800000000     0.912880000000    -0.0447561  
S19      S      0.067320000000     0.928410000000     0.159630000000    -0.0422573  
S20      S      0.904590000000     0.941680000000     0.165920000000    -0.0489123  
S21      S      0.012740000000     0.064700000000     0.799040000000    -0.0446099  
S22      S      0.963720000000     0.677940000000     0.553250000000    -0.039891   
S23      S      0.971390000000     0.792410000000     0.052270000000    -0.0503422  
S24      S      0.956300000000     0.055080000000     0.174730000000    -0.0479216  
Zr1      Zr     0.983210000000     0.983180000000     0.063970000000     1.4276     
Zr2      Zr     0.985670000000     0.906420000000     0.982120000000     1.43266    
Zr3      Zr     0.983140000000     0.065660000000     0.986500000000     1.42732    
Zr4      Zr     0.904160000000     0.984980000000     0.983090000000     1.4225     
Zr5      Zr     0.064450000000     0.987350000000     0.985760000000     1.42609    
Zr6      Zr     0.985800000000     0.988020000000     0.904790000000     1.42934    
Zr7      Zr     0.985860000000     0.484140000000     0.404800000000     1.42865    
Zr8      Zr     0.985550000000     0.565560000000     0.482700000000     1.43549    
Zr9      Zr     0.982870000000     0.406120000000     0.486450000000     1.42652    
Zr10     Zr     0.904600000000     0.487150000000     0.483440000000     1.43182    
Zr11     Zr     0.064070000000     0.484960000000     0.485660000000     1.433      
Zr12     Zr     0.983530000000     0.488580000000     0.564700000000     1.42568    
Zr13     Zr     0.484570000000     0.984050000000     0.404490000000     1.42641    
Zr14     Zr     0.404610000000     0.985420000000     0.484380000000     1.42715    
Zr15     Zr     0.564640000000     0.987070000000     0.484100000000     1.42469    
Zr16     Zr     0.485560000000     0.906660000000     0.486700000000     1.43355    
Zr17     Zr     0.483620000000     0.066000000000     0.482270000000     1.43254    
Zr18     Zr     0.484540000000     0.988590000000     0.564140000000     1.42879    
Zr19     Zr     0.483080000000     0.406670000000     0.982440000000     1.4327     
Zr20     Zr     0.564660000000     0.484790000000     0.983670000000     1.42452    
Zr21     Zr     0.404690000000     0.487650000000     0.985290000000     1.42748    
Zr22     Zr     0.483750000000     0.488060000000     0.904600000000     1.42989    
Zr23     Zr     0.485230000000     0.484290000000     0.064380000000     1.42779    
Zr24     Zr     0.486160000000     0.565970000000     0.986210000000     1.42816    


