data_structure

_audit_creation_method RASPA-1.0
_audit_creation_date 2023-5-19
_audit_author_name 'Poobodin Mano'

_cell_length_a    33.7077
_cell_length_b    33.7235
_cell_length_c    33.6991
_cell_angle_alpha 90
_cell_angle_beta  90
_cell_angle_gamma 90
_cell_volume      38307.2

_symmetry_cell_setting          triclinic
_symmetry_space_group_name_Hall 'P 1'
_symmetry_space_group_name_H-M  'P 1'
_symmetry_Int_Tables_number     1

_symmetry_equiv_pos_as_xyz 'x,y,z'

loop_
_atom_site_label
_atom_site_type_symbol
_atom_site_fract_x
_atom_site_fract_y
_atom_site_fract_z
_atom_site_charge
C1       C      0.010770000000     0.113390000000     0.113260000000     0.397387   
C2       C      0.012750000000     0.910700000000     0.113290000000     0.397315   
C3       C      0.910390000000     0.012820000000     0.113240000000     0.397468   
C4       C      0.113140000000     0.011250000000     0.113280000000     0.397374   
C5       C      0.010680000000     0.910670000000     0.910460000000     0.397172   
C6       C      0.012920000000     0.113370000000     0.910430000000     0.397125   
C7       C      0.910310000000     0.910740000000     0.010800000000     0.397018   
C8       C      0.113100000000     0.910600000000     0.012930000000     0.39695    
C9       C      0.113240000000     0.113310000000     0.010810000000     0.397195   
C10      C      0.910450000000     0.113460000000     0.012890000000     0.397031   
C11      C      0.910420000000     0.011350000000     0.910440000000     0.397357   
C12      C      0.113180000000     0.012690000000     0.910480000000     0.397235   
C13      C      0.010720000000     0.410700000000     0.410430000000     0.397193   
C14      C      0.012780000000     0.613390000000     0.410460000000     0.397365   
C15      C      0.910380000000     0.510960000000     0.410490000000     0.397845   
C16      C      0.113120000000     0.513130000000     0.410430000000     0.39768    
C17      C      0.010730000000     0.613360000000     0.613290000000     0.397361   
C18      C      0.012890000000     0.410680000000     0.613260000000     0.397243   
C19      C      0.910360000000     0.613370000000     0.512600000000     0.397331   
C20      C      0.113160000000     0.613410000000     0.511130000000     0.397346   
C21      C      0.113200000000     0.410690000000     0.512540000000     0.397285   
C22      C      0.910400000000     0.410650000000     0.511170000000     0.397199   
C23      C      0.910440000000     0.513090000000     0.613290000000     0.397703   
C24      C      0.113180000000     0.510970000000     0.613230000000     0.397811   
C25      C      0.613140000000     0.011170000000     0.410450000000     0.397436   
C26      C      0.410400000000     0.012880000000     0.410460000000     0.397655   
C27      C      0.512560000000     0.910680000000     0.410440000000     0.397315   
C28      C      0.510970000000     0.113380000000     0.410440000000     0.397326   
C29      C      0.410410000000     0.011220000000     0.613260000000     0.397529   
C30      C      0.613160000000     0.012850000000     0.613250000000     0.397582   
C31      C      0.410350000000     0.910700000000     0.512690000000     0.397226   
C32      C      0.410400000000     0.113410000000     0.511050000000     0.397204   
C33      C      0.613200000000     0.113360000000     0.512680000000     0.397183   
C34      C      0.613150000000     0.910650000000     0.511030000000     0.397155   
C35      C      0.510940000000     0.910680000000     0.613270000000     0.397182   
C36      C      0.512650000000     0.113380000000     0.613270000000     0.397237   
C37      C      0.410450000000     0.410610000000     0.010780000000     0.397261   
C38      C      0.613250000000     0.410750000000     0.012930000000     0.397162   
C39      C      0.511150000000     0.410680000000     0.910440000000     0.397401   
C40      C      0.512530000000     0.410680000000     0.113270000000     0.397446   
C41      C      0.613110000000     0.613450000000     0.010830000000     0.397069   
C42      C      0.410310000000     0.613310000000     0.012890000000     0.397291   
C43      C      0.613180000000     0.513170000000     0.910490000000     0.397653   
C44      C      0.613130000000     0.511010000000     0.113280000000     0.397715   
C45      C      0.410370000000     0.513040000000     0.113230000000     0.397718   
C46      C      0.410430000000     0.510910000000     0.910430000000     0.397585   
C47      C      0.512460000000     0.613380000000     0.910440000000     0.397388   
C48      C      0.510970000000     0.613380000000     0.113280000000     0.397389   
C49      C      0.510810000000     0.181700000000     0.391820000000     0.0713686  
C50      C      0.510900000000     0.211350000000     0.362910000000    -0.0932381  
C51      C      0.511010000000     0.201170000000     0.322630000000     0.0490597  
C52      C      0.510890000000     0.160930000000     0.312420000000    -0.0932303  
C53      C      0.510750000000     0.132010000000     0.342070000000     0.0712704  
C54      C      0.511350000000     0.232340000000     0.291470000000    -0.0071065  
C55      C      0.488030000000     0.266660000000     0.295570000000    -0.0357231  
C56      C      0.488400000000     0.296000000000     0.266300000000    -0.0358596  
C57      C      0.512090000000     0.291700000000     0.232230000000    -0.00706128 
C58      C      0.535400000000     0.257380000000     0.228130000000    -0.0357932  
C59      C      0.535030000000     0.228040000000     0.257400000000    -0.0357592  
C60      C      0.512430000000     0.322880000000     0.201070000000     0.0490489  
C61      C      0.512550000000     0.363110000000     0.211290000000    -0.0932495  
C62      C      0.512700000000     0.392030000000     0.181640000000     0.071326   
C63      C      0.512660000000     0.342350000000     0.131880000000     0.071276   
C64      C      0.512550000000     0.312700000000     0.160790000000    -0.0932211  
C65      C      0.512760000000     0.892040000000     0.342080000000     0.0714593  
C66      C      0.512610000000     0.863120000000     0.312420000000    -0.0931881  
C67      C      0.512480000000     0.822890000000     0.322640000000     0.0491679  
C68      C      0.512590000000     0.812710000000     0.362910000000    -0.0931803  
C69      C      0.512700000000     0.842360000000     0.391830000000     0.0714563  
C70      C      0.512140000000     0.791710000000     0.291480000000    -0.00703886 
C71      C      0.488450000000     0.796020000000     0.257410000000    -0.0357917  
C72      C      0.488070000000     0.766680000000     0.228130000000    -0.0357798  
C73      C      0.511380000000     0.732350000000     0.232240000000    -0.00708846 
C74      C      0.535070000000     0.728050000000     0.266300000000    -0.0357697  
C75      C      0.535440000000     0.757380000000     0.295580000000    -0.0356978  
C76      C      0.511040000000     0.701180000000     0.201070000000     0.0490974  
C77      C      0.510920000000     0.711360000000     0.160800000000    -0.0933776  
C78      C      0.510820000000     0.681700000000     0.131890000000     0.0713572  
C79      C      0.510770000000     0.632020000000     0.181640000000     0.0713294  
C80      C      0.510920000000     0.660940000000     0.211290000000    -0.0932671  
C81      C      0.510700000000     0.892040000000     0.681640000000     0.0714637  
C82      C      0.510840000000     0.863130000000     0.711300000000    -0.0933073  
C83      C      0.510960000000     0.822890000000     0.701080000000     0.0491512  
C84      C      0.510870000000     0.812710000000     0.660810000000    -0.093345   
C85      C      0.510770000000     0.842360000000     0.631890000000     0.0713301  
C86      C      0.511290000000     0.791720000000     0.732240000000    -0.00715946 
C87      C      0.534960000000     0.796030000000     0.766330000000    -0.0357221  
C88      C      0.535320000000     0.766690000000     0.795600000000    -0.0357399  
C89      C      0.512020000000     0.732360000000     0.791490000000    -0.00700906 
C90      C      0.488350000000     0.728050000000     0.757410000000    -0.0358863  
C91      C      0.487990000000     0.757390000000     0.728130000000    -0.0356923  
C92      C      0.512360000000     0.701180000000     0.822650000000     0.0491297  
C93      C      0.512450000000     0.711360000000     0.862920000000    -0.0930849  
C94      C      0.512560000000     0.681710000000     0.891840000000     0.0714939  
C95      C      0.512660000000     0.632030000000     0.842080000000     0.0713456  
C96      C      0.512510000000     0.660950000000     0.812430000000    -0.0932333  
C97      C      0.512830000000     0.181700000000     0.631890000000     0.0713472  
C98      C      0.512760000000     0.211350000000     0.660810000000    -0.0932238  
C99      C      0.512660000000     0.201170000000     0.701080000000     0.0491538  
C100     C      0.512780000000     0.160930000000     0.711300000000    -0.0932368  
C101     C      0.512890000000     0.132010000000     0.681640000000     0.0714165  
C102     C      0.512350000000     0.232340000000     0.732240000000    -0.00705618 
C103     C      0.535650000000     0.266660000000     0.728130000000    -0.0357198  
C104     C      0.535300000000     0.296000000000     0.757410000000    -0.0358054  
C105     C      0.511620000000     0.291700000000     0.791490000000    -0.00706491 
C106     C      0.488320000000     0.257370000000     0.795600000000    -0.0356693  
C107     C      0.488670000000     0.228040000000     0.766330000000    -0.0357144  
C108     C      0.511290000000     0.322880000000     0.822650000000     0.0492114  
C109     C      0.511150000000     0.363110000000     0.812420000000    -0.093347   
C110     C      0.510990000000     0.392030000000     0.842080000000     0.0714726  
C111     C      0.511070000000     0.342350000000     0.891830000000     0.0714518  
C112     C      0.511190000000     0.312700000000     0.862920000000    -0.0932171  
C113     C      0.842040000000     0.392000000000     0.511010000000     0.0713675  
C114     C      0.812400000000     0.363080000000     0.511170000000    -0.0932228  
C115     C      0.822610000000     0.322840000000     0.511290000000     0.0490575  
C116     C      0.862880000000     0.312670000000     0.511170000000    -0.0930747  
C117     C      0.891790000000     0.342320000000     0.511060000000     0.0713223  
C118     C      0.791450000000     0.291660000000     0.511630000000    -0.00702702 
C119     C      0.757370000000     0.295980000000     0.535290000000    -0.0358029  
C120     C      0.728090000000     0.266650000000     0.535650000000    -0.0357436  
C121     C      0.732200000000     0.232300000000     0.512350000000    -0.00707558 
C122     C      0.766280000000     0.227990000000     0.488700000000    -0.0357514  
C123     C      0.795560000000     0.257320000000     0.488340000000    -0.0357268  
C124     C      0.701020000000     0.201140000000     0.512670000000     0.0490601  
C125     C      0.660760000000     0.211330000000     0.512770000000    -0.0932672  
C126     C      0.631840000000     0.181680000000     0.512850000000     0.0713448  
C127     C      0.681560000000     0.131980000000     0.512910000000     0.0712837  
C128     C      0.711220000000     0.160890000000     0.512780000000    -0.0931954  
C129     C      0.842010000000     0.632010000000     0.512710000000     0.0713739  
C130     C      0.812350000000     0.660930000000     0.512590000000    -0.0932264  
C131     C      0.822560000000     0.701170000000     0.512470000000     0.0490729  
C132     C      0.862830000000     0.711350000000     0.512620000000    -0.0931784  
C133     C      0.891740000000     0.681700000000     0.512780000000     0.0713326  
C134     C      0.791400000000     0.732340000000     0.512130000000    -0.00706119 
C135     C      0.757030000000     0.728270000000     0.535410000000    -0.0356863  
C136     C      0.727720000000     0.757570000000     0.535050000000    -0.0357807  
C137     C      0.732080000000     0.791630000000     0.511400000000    -0.00700624 
C138     C      0.766440000000     0.795710000000     0.488110000000    -0.0357548  
C139     C      0.795760000000     0.766410000000     0.488470000000    -0.0357977  
C140     C      0.700920000000     0.822820000000     0.511070000000     0.0490864  
C141     C      0.660650000000     0.812650000000     0.510940000000    -0.0932542  
C142     C      0.631750000000     0.842310000000     0.510800000000     0.071363   
C143     C      0.681500000000     0.891980000000     0.510870000000     0.0714181  
C144     C      0.711140000000     0.863060000000     0.510960000000    -0.0931468  
C145     C      0.181560000000     0.392060000000     0.512720000000     0.0712637  
C146     C      0.211220000000     0.363150000000     0.512580000000    -0.0932702  
C147     C      0.201020000000     0.322910000000     0.512460000000     0.0490536  
C148     C      0.160750000000     0.312720000000     0.512570000000    -0.0933365  
C149     C      0.131840000000     0.342370000000     0.512670000000     0.0713668  
C150     C      0.232190000000     0.291740000000     0.512130000000    -0.00710514 
C151     C      0.266280000000     0.296060000000     0.488480000000    -0.0358295  
C152     C      0.295560000000     0.266730000000     0.488130000000    -0.0357711  
C153     C      0.291450000000     0.232390000000     0.511420000000    -0.00709688 
C154     C      0.257360000000     0.228070000000     0.535080000000    -0.0358678  
C155     C      0.228080000000     0.257400000000     0.535430000000    -0.0357958  
C156     C      0.322610000000     0.201220000000     0.511090000000     0.0489881  
C157     C      0.362880000000     0.211390000000     0.510980000000    -0.0931964  
C158     C      0.391790000000     0.181740000000     0.510890000000     0.0712983  
C159     C      0.342050000000     0.132060000000     0.510830000000     0.0711958  
C160     C      0.312400000000     0.160980000000     0.510970000000    -0.0932578  
C161     C      0.181510000000     0.632060000000     0.510930000000     0.0713587  
C162     C      0.211160000000     0.660980000000     0.511090000000    -0.093216   
C163     C      0.200950000000     0.701220000000     0.511240000000     0.0491024  
C164     C      0.160680000000     0.711400000000     0.511130000000    -0.0931531  
C165     C      0.131770000000     0.681740000000     0.511020000000     0.0713785  
C166     C      0.232110000000     0.732400000000     0.511580000000    -0.00696414 
C167     C      0.266200000000     0.728070000000     0.535230000000    -0.0357887  
C168     C      0.295480000000     0.757400000000     0.535600000000    -0.035699   
C169     C      0.291360000000     0.791750000000     0.512320000000    -0.00698011 
C170     C      0.257270000000     0.796080000000     0.488670000000    -0.0356377  
C171     C      0.227990000000     0.766750000000     0.488300000000    -0.0357105  
C172     C      0.322530000000     0.822920000000     0.512640000000     0.049139   
C173     C      0.362800000000     0.812730000000     0.512750000000    -0.0931673  
C174     C      0.391720000000     0.842380000000     0.512840000000     0.0714202  
C175     C      0.342000000000     0.892070000000     0.512910000000     0.0715338  
C176     C      0.312330000000     0.863170000000     0.512770000000    -0.0931245  
C177     C      0.891770000000     0.510320000000     0.342130000000     0.0716172  
C178     C      0.862860000000     0.510070000000     0.312460000000    -0.0932635  
C179     C      0.822610000000     0.509960000000     0.322670000000     0.0493432  
C180     C      0.812390000000     0.510030000000     0.362930000000    -0.0933247  
C181     C      0.842040000000     0.510320000000     0.391860000000     0.0716699  
C182     C      0.791460000000     0.509890000000     0.291480000000    -0.00699933 
C183     C      0.795620000000     0.533450000000     0.257320000000    -0.0357854  
C184     C      0.766300000000     0.533460000000     0.228020000000    -0.035719   
C185     C      0.732140000000     0.509920000000     0.232190000000    -0.00710083 
C186     C      0.727980000000     0.486350000000     0.266350000000    -0.0356447  
C187     C      0.757300000000     0.486340000000     0.295660000000    -0.0356723  
C188     C      0.700950000000     0.510010000000     0.201050000000     0.0492604  
C189     C      0.711140000000     0.510120000000     0.160780000000    -0.0933718  
C190     C      0.681470000000     0.510380000000     0.131880000000     0.071507   
C191     C      0.631770000000     0.510390000000     0.181640000000     0.0714657  
C192     C      0.660710000000     0.510090000000     0.211290000000    -0.0933268  
C193     C      0.131700000000     0.513770000000     0.342060000000     0.0714118  
C194     C      0.160590000000     0.514020000000     0.312380000000    -0.0934429  
C195     C      0.200850000000     0.514130000000     0.322570000000     0.0491303  
C196     C      0.211090000000     0.514050000000     0.362830000000    -0.0933014  
C197     C      0.181460000000     0.513750000000     0.391770000000     0.0713736  
C198     C      0.231990000000     0.514210000000     0.291370000000    -0.00711246 
C199     C      0.227820000000     0.490650000000     0.257210000000    -0.0359156  
C200     C      0.257140000000     0.490640000000     0.227910000000    -0.0358141  
C201     C      0.291310000000     0.514170000000     0.232080000000    -0.00715907 
C202     C      0.295470000000     0.537740000000     0.266240000000    -0.035701   
C203     C      0.266150000000     0.537760000000     0.295550000000    -0.0357531  
C204     C      0.322510000000     0.514070000000     0.200950000000     0.0492446  
C205     C      0.312340000000     0.513940000000     0.160680000000    -0.0933972  
C206     C      0.342020000000     0.513680000000     0.131790000000     0.0715286  
C207     C      0.391700000000     0.513680000000     0.181570000000     0.071435   
C208     C      0.362750000000     0.513990000000     0.211210000000    -0.0933693  
C209     C      0.181520000000     0.510360000000     0.631860000000     0.0714557  
C210     C      0.211170000000     0.510060000000     0.660790000000    -0.0933701  
C211     C      0.200950000000     0.509960000000     0.701050000000     0.0492191  
C212     C      0.160700000000     0.510060000000     0.711250000000    -0.0933922  
C213     C      0.131790000000     0.510320000000     0.681590000000     0.0714395  
C214     C      0.232100000000     0.509880000000     0.732230000000    -0.00717693 
C215     C      0.266260000000     0.486330000000     0.728040000000    -0.0356461  
C216     C      0.295580000000     0.486320000000     0.757340000000    -0.0357392  
C217     C      0.291420000000     0.509860000000     0.791520000000    -0.00711982 
C218     C      0.257250000000     0.533400000000     0.795710000000    -0.0358696  
C219     C      0.227940000000     0.533400000000     0.766410000000    -0.0358161  
C220     C      0.322610000000     0.509920000000     0.822660000000     0.0491455  
C221     C      0.362850000000     0.510020000000     0.812430000000    -0.0932422  
C222     C      0.391790000000     0.510310000000     0.842070000000     0.0713792  
C223     C      0.342090000000     0.510240000000     0.891840000000     0.0714613  
C224     C      0.312420000000     0.510000000000     0.862930000000    -0.093276   
C225     C      0.891860000000     0.513760000000     0.681660000000     0.0715242  
C226     C      0.862970000000     0.514030000000     0.711340000000    -0.0933026  
C227     C      0.822710000000     0.514150000000     0.701150000000     0.0492185  
C228     C      0.812470000000     0.514050000000     0.660890000000    -0.0933676  
C229     C      0.842100000000     0.513730000000     0.631950000000     0.0714365  
C230     C      0.791570000000     0.514260000000     0.732350000000    -0.00716843 
C231     C      0.795730000000     0.490730000000     0.766530000000    -0.0357068  
C232     C      0.766420000000     0.490740000000     0.795830000000    -0.0358726  
C233     C      0.732260000000     0.514280000000     0.791630000000    -0.00701251 
C234     C      0.728090000000     0.537830000000     0.757460000000    -0.0358346  
C235     C      0.757410000000     0.537810000000     0.728160000000    -0.0356046  
C236     C      0.701050000000     0.514200000000     0.822770000000     0.049184   
C237     C      0.711220000000     0.514110000000     0.863040000000    -0.0932724  
C238     C      0.681540000000     0.513850000000     0.891930000000     0.0715421  
C239     C      0.631860000000     0.513790000000     0.842140000000     0.0714316  
C240     C      0.660810000000     0.514100000000     0.812510000000    -0.0932827  
C241     C      0.891630000000     0.842440000000     0.010240000000     0.0714793  
C242     C      0.862680000000     0.812810000000     0.009940000000    -0.0933989  
C243     C      0.822430000000     0.823030000000     0.009780000000     0.0494464  
C244     C      0.812260000000     0.863280000000     0.009820000000    -0.0934075  
C245     C      0.841950000000     0.892170000000     0.010080000000     0.071438   
C246     C      0.791230000000     0.791890000000     0.009690000000    -0.00852457 
C247     C      0.795480000000     0.757660000000     0.986250000000    -0.0341661  
C248     C      0.766180000000     0.728340000000     0.986270000000    -0.0341204  
C249     C      0.731940000000     0.732560000000     0.009710000000    -0.00860796 
C250     C      0.727680000000     0.766810000000     0.033120000000    -0.0355947  
C251     C      0.756970000000     0.796120000000     0.033110000000    -0.0356157  
C252     C      0.700810000000     0.701340000000     0.009810000000     0.0493709  
C253     C      0.711070000000     0.661110000000     0.009980000000    -0.0936014  
C254     C      0.681440000000     0.632160000000     0.010280000000     0.0713181  
C255     C      0.631650000000     0.681790000000     0.010110000000     0.071237   
C256     C      0.660530000000     0.711480000000     0.009850000000    -0.0935021  
C257     C      0.842110000000     0.132110000000     0.013570000000     0.0713641  
C258     C      0.812460000000     0.161020000000     0.013820000000    -0.0936336  
C259     C      0.822670000000     0.201260000000     0.013860000000     0.0493992  
C260     C      0.862930000000     0.211450000000     0.013720000000    -0.0934954  
C261     C      0.891840000000     0.181790000000     0.013430000000     0.0713798  
C262     C      0.791490000000     0.232430000000     0.013930000000    -0.00859801 
C263     C      0.757240000000     0.228210000000     0.990500000000    -0.0343694  
C264     C      0.727940000000     0.257530000000     0.990500000000    -0.0343143  
C265     C      0.732200000000     0.291760000000     0.013940000000    -0.00862839 
C266     C      0.766440000000     0.295980000000     0.037370000000    -0.0355678  
C267     C      0.795750000000     0.266660000000     0.037370000000    -0.0355872  
C268     C      0.701040000000     0.322950000000     0.013880000000     0.0493485  
C269     C      0.660780000000     0.312780000000     0.013850000000    -0.093565   
C270     C      0.631870000000     0.342430000000     0.013610000000     0.0712596  
C271     C      0.681600000000     0.392110000000     0.013470000000     0.0712855  
C272     C      0.711260000000     0.363190000000     0.013750000000    -0.0935542  
C273     C      0.391620000000     0.681620000000     0.013520000000     0.0712079  
C274     C      0.362680000000     0.711240000000     0.013820000000    -0.0934918  
C275     C      0.322420000000     0.701020000000     0.013900000000     0.0492824  
C276     C      0.312260000000     0.660770000000     0.013760000000    -0.093536   
C277     C      0.341940000000     0.631880000000     0.013510000000     0.0711756  
C278     C      0.291220000000     0.732160000000     0.014000000000    -0.00863362 
C279     C      0.295440000000     0.766350000000     0.037500000000    -0.0355475  
C280     C      0.266140000000     0.795670000000     0.037500000000    -0.035605   
C281     C      0.231930000000     0.791490000000     0.014000000000    -0.0086216  
C282     C      0.227700000000     0.757290000000     0.990520000000    -0.0343633  
C283     C      0.257000000000     0.727980000000     0.990520000000    -0.0343069  
C284     C      0.200800000000     0.822710000000     0.013920000000     0.049289   
C285     C      0.211060000000     0.862940000000     0.013840000000    -0.0934672  
C286     C      0.181440000000     0.891890000000     0.013550000000     0.0712356  
C287     C      0.131650000000     0.842260000000     0.013560000000     0.0712023  
C288     C      0.160530000000     0.812570000000     0.013810000000    -0.0936296  
C289     C      0.131930000000     0.181620000000     0.010240000000     0.0712994  
C290     C      0.160870000000     0.211250000000     0.009940000000    -0.0935993  
C291     C      0.201120000000     0.201030000000     0.009800000000     0.049351   
C292     C      0.211290000000     0.160780000000     0.009860000000    -0.0934576  
C293     C      0.181610000000     0.131890000000     0.010120000000     0.0712516  
C294     C      0.232330000000     0.232170000000     0.009700000000    -0.00857696 
C295     C      0.228080000000     0.266390000000     0.986240000000    -0.0342343  
C296     C      0.257380000000     0.295710000000     0.986240000000    -0.0341847  
C297     C      0.291620000000     0.291500000000     0.009690000000    -0.00865129 
C298     C      0.295870000000     0.257270000000     0.033120000000    -0.0356108  
C299     C      0.266580000000     0.227950000000     0.033130000000    -0.0357334  
C300     C      0.322740000000     0.322720000000     0.009780000000     0.0493175  
C301     C      0.312490000000     0.362950000000     0.009920000000    -0.0935679  
C302     C      0.342110000000     0.391900000000     0.010220000000     0.0712237  
C303     C      0.391900000000     0.342270000000     0.010090000000     0.0712348  
C304     C      0.363020000000     0.312580000000     0.009830000000    -0.0934846  
C305     C      0.842070000000     0.011260000000     0.891820000000     0.0715257  
C306     C      0.812420000000     0.011370000000     0.862900000000    -0.0935733  
C307     C      0.822630000000     0.011460000000     0.822630000000     0.0495128  
C308     C      0.862880000000     0.011300000000     0.812420000000    -0.0934551  
C309     C      0.891800000000     0.011150000000     0.842080000000     0.0714706  
C310     C      0.791470000000     0.011780000000     0.791470000000    -0.00853176 
C311     C      0.757150000000     0.988440000000     0.795550000000    -0.0342411  
C312     C      0.727820000000     0.988800000000     0.766260000000    -0.0341514  
C313     C      0.732120000000     0.012500000000     0.732210000000    -0.00862338 
C314     C      0.766440000000     0.035840000000     0.728130000000    -0.0354681  
C315     C      0.795770000000     0.035490000000     0.757420000000    -0.0356088  
C316     C      0.700960000000     0.012820000000     0.701050000000     0.0495248  
C317     C      0.660710000000     0.012960000000     0.711260000000    -0.0936721  
C318     C      0.631790000000     0.013090000000     0.681610000000     0.0713942  
C319     C      0.681510000000     0.013000000000     0.631860000000     0.0713887  
C320     C      0.711170000000     0.012920000000     0.660780000000    -0.0935463  
C321     C      0.391780000000     0.011060000000     0.681630000000     0.0713276  
C322     C      0.362860000000     0.011150000000     0.711280000000    -0.0936311  
C323     C      0.322610000000     0.011260000000     0.701060000000     0.0494909  
C324     C      0.312410000000     0.011140000000     0.660800000000    -0.0936196  
C325     C      0.342070000000     0.011000000000     0.631880000000     0.0713944  
C326     C      0.291440000000     0.011590000000     0.732220000000    -0.00861099 
C327     C      0.295490000000     0.988220000000     0.766530000000    -0.0341385  
C328     C      0.266190000000     0.988570000000     0.795850000000    -0.0341689  
C329     C      0.232170000000     0.012290000000     0.791550000000    -0.00855347 
C330     C      0.228120000000     0.035660000000     0.757240000000    -0.0355616  
C331     C      0.257420000000     0.035310000000     0.727920000000    -0.035579   
C332     C      0.201000000000     0.012610000000     0.822700000000     0.0494958  
C333     C      0.211190000000     0.012720000000     0.862970000000    -0.0934966  
C334     C      0.181530000000     0.012870000000     0.891880000000     0.0714585  
C335     C      0.131820000000     0.012830000000     0.842120000000     0.0714007  
C336     C      0.160750000000     0.012730000000     0.812470000000    -0.0935311  
C337     C      0.342050000000     0.013040000000     0.391850000000     0.0714003  
C338     C      0.312390000000     0.012930000000     0.362940000000    -0.0936688  
C339     C      0.322600000000     0.012800000000     0.322670000000     0.0494653  
C340     C      0.362850000000     0.012930000000     0.312450000000    -0.0937577  
C341     C      0.391760000000     0.013080000000     0.342110000000     0.0713913  
C342     C      0.291430000000     0.012450000000     0.291510000000    -0.00868237 
C343     C      0.257120000000     0.035810000000     0.295560000000    -0.0355477  
C344     C      0.227790000000     0.035430000000     0.266280000000    -0.0356445  
C345     C      0.232090000000     0.011690000000     0.232260000000    -0.00862593 
C346     C      0.266390000000     0.988330000000     0.228200000000    -0.0343117  
C347     C      0.295720000000     0.988710000000     0.257490000000    -0.0342898  
C348     C      0.200920000000     0.011340000000     0.201090000000     0.0494305  
C349     C      0.160670000000     0.011230000000     0.211300000000    -0.0936055  
C350     C      0.131760000000     0.011070000000     0.181640000000     0.0713904  
C351     C      0.181480000000     0.011100000000     0.131900000000     0.071264   
C352     C      0.211140000000     0.011210000000     0.160830000000    -0.0937266  
C353     C      0.891750000000     0.013000000000     0.181600000000     0.0713626  
C354     C      0.862830000000     0.012830000000     0.211260000000    -0.0936975  
C355     C      0.822580000000     0.012690000000     0.201040000000     0.0494144  
C356     C      0.812380000000     0.012820000000     0.160770000000    -0.0936257  
C357     C      0.842040000000     0.012940000000     0.131850000000     0.0713848  
C358     C      0.791420000000     0.012330000000     0.232200000000    -0.00864897 
C359     C      0.795720000000     0.988590000000     0.266220000000    -0.0343982  
C360     C      0.766390000000     0.988210000000     0.295510000000    -0.0342331  
C361     C      0.732080000000     0.011560000000     0.291460000000    -0.00874638 
C362     C      0.727780000000     0.035300000000     0.257430000000    -0.0355983  
C363     C      0.757110000000     0.035680000000     0.228140000000    -0.035665   
C364     C      0.700920000000     0.011220000000     0.322630000000     0.0494179  
C365     C      0.711140000000     0.011100000000     0.362890000000    -0.0938229  
C366     C      0.681480000000     0.011000000000     0.391810000000     0.071363   
C367     C      0.631750000000     0.010950000000     0.342080000000     0.0712637  
C368     C      0.660660000000     0.011100000000     0.312420000000    -0.0936318  
C369     C      0.013540000000     0.342360000000     0.631890000000     0.071244   
C370     C      0.013850000000     0.312710000000     0.660820000000    -0.0935463  
C371     C      0.013940000000     0.322910000000     0.701090000000     0.0493512  
C372     C      0.013830000000     0.363160000000     0.711290000000    -0.0936124  
C373     C      0.013560000000     0.392060000000     0.681630000000     0.0712943  
C374     C      0.014030000000     0.291760000000     0.732280000000    -0.00863757 
C375     C      0.037540000000     0.257580000000     0.728050000000    -0.0355374  
C376     C      0.037540000000     0.228250000000     0.757340000000    -0.0356536  
C377     C      0.014030000000     0.232420000000     0.791550000000    -0.00858403 
C378     C      0.990540000000     0.266600000000     0.795780000000    -0.0343093  
C379     C      0.990540000000     0.295930000000     0.766490000000    -0.0342473  
C380     C      0.013950000000     0.201210000000     0.822690000000     0.0493367  
C381     C      0.013860000000     0.160980000000     0.812440000000    -0.0935165  
C382     C      0.013550000000     0.132040000000     0.842070000000     0.0712018  
C383     C      0.013600000000     0.181690000000     0.891860000000     0.0714305  
C384     C      0.013860000000     0.211360000000     0.862970000000    -0.0935526  
C385     C      0.010080000000     0.891980000000     0.842110000000     0.0715403  
C386     C      0.009790000000     0.863040000000     0.812470000000    -0.0934715  
C387     C      0.009700000000     0.822810000000     0.822720000000     0.0494702  
C388     C      0.009780000000     0.812660000000     0.863010000000    -0.0935142  
C389     C      0.010030000000     0.842340000000     0.891900000000     0.0714281  
C390     C      0.009630000000     0.791600000000     0.791590000000    -0.00851493 
C391     C      0.986120000000     0.795770000000     0.757380000000    -0.0341034  
C392     C      0.986120000000     0.766440000000     0.728090000000    -0.0340817  
C393     C      0.009630000000     0.732270000000     0.732320000000    -0.0085243  
C394     C      0.033130000000     0.728100000000     0.766530000000    -0.0356135  
C395     C      0.033130000000     0.757420000000     0.795820000000    -0.0356082  
C396     C      0.009730000000     0.701110000000     0.701130000000     0.0494346  
C397     C      0.009810000000     0.711320000000     0.660860000000    -0.0935391  
C398     C      0.010110000000     0.681680000000     0.631930000000     0.0713441  
C399     C      0.010100000000     0.631970000000     0.681660000000     0.0713002  
C400     C      0.009850000000     0.660870000000     0.711330000000    -0.0935297  
C401     C      0.013280000000     0.842380000000     0.131930000000     0.0714336  
C402     C      0.013560000000     0.812740000000     0.160850000000    -0.0935446  
C403     C      0.013710000000     0.822940000000     0.201120000000     0.049443   
C404     C      0.013670000000     0.863180000000     0.211320000000    -0.0935036  
C405     C      0.013430000000     0.892090000000     0.181650000000     0.0713793  
C406     C      0.013790000000     0.791790000000     0.232310000000    -0.00858557 
C407     C      0.037250000000     0.757580000000     0.228050000000    -0.0355102  
C408     C      0.037250000000     0.728250000000     0.257350000000    -0.0355374  
C409     C      0.013780000000     0.732450000000     0.291580000000    -0.00860315 
C410     C      0.990330000000     0.766660000000     0.295840000000    -0.0343239  
C411     C      0.990340000000     0.795980000000     0.266550000000    -0.0342691  
C412     C      0.013710000000     0.701240000000     0.322720000000     0.0493314  
C413     C      0.013570000000     0.661010000000     0.312470000000    -0.0934955  
C414     C      0.013300000000     0.632070000000     0.342100000000     0.0712377  
C415     C      0.013450000000     0.681720000000     0.391890000000     0.0712294  
C416     C      0.013680000000     0.711390000000     0.363000000000    -0.0936347  
C417     C      0.010150000000     0.132080000000     0.181610000000     0.0713028  
C418     C      0.009860000000     0.161020000000     0.211250000000    -0.0936595  
C419     C      0.009780000000     0.201250000000     0.201000000000     0.0493518  
C420     C      0.009890000000     0.211400000000     0.160720000000    -0.0935627  
C421     C      0.010140000000     0.181720000000     0.131830000000     0.0713018  
C422     C      0.009690000000     0.232460000000     0.232130000000    -0.00861627 
C423     C      0.986170000000     0.228290000000     0.266330000000    -0.0342645  
C424     C      0.986150000000     0.257620000000     0.295620000000    -0.034177   
C425     C      0.009660000000     0.291800000000     0.291400000000    -0.00864213 
C426     C      0.033170000000     0.295970000000     0.257200000000    -0.0356586  
C427     C      0.033190000000     0.266640000000     0.227910000000    -0.0357112  
C428     C      0.009730000000     0.322950000000     0.322590000000     0.0493775  
C429     C      0.009810000000     0.312750000000     0.362860000000    -0.093603   
C430     C      0.010100000000     0.342390000000     0.391790000000     0.0712909  
C431     C      0.010090000000     0.392090000000     0.342060000000     0.0712765  
C432     C      0.009840000000     0.363190000000     0.312390000000    -0.0935968  
H1       H      0.954930000000     0.955270000000     0.068680000000     0.210531   
H2       H      0.068610000000     0.068810000000     0.068680000000     0.210171   
H3       H      0.955020000000     0.068870000000     0.955020000000     0.210528   
H4       H      0.068550000000     0.955170000000     0.955060000000     0.210506   
H5       H      0.954950000000     0.568810000000     0.455040000000     0.210354   
H6       H      0.068580000000     0.455270000000     0.454990000000     0.21008    
H7       H      0.955000000000     0.455240000000     0.568710000000     0.21046    
H8       H      0.068590000000     0.568810000000     0.568700000000     0.210262   
H9       H      0.454960000000     0.955270000000     0.455050000000     0.210493   
H10      H      0.568590000000     0.068790000000     0.455040000000     0.210369   
H11      H      0.568570000000     0.955240000000     0.568660000000     0.210355   
H12      H      0.455000000000     0.068820000000     0.568670000000     0.210464   
H13      H      0.568660000000     0.455290000000     0.955060000000     0.210485   
H14      H      0.454970000000     0.455210000000     0.068660000000     0.210117   
H15      H      0.454920000000     0.568770000000     0.955030000000     0.210476   
H16      H      0.568560000000     0.568850000000     0.068690000000     0.210111   
H17      H      0.510920000000     0.191110000000     0.422580000000     0.0235543  
H18      H      0.511480000000     0.242110000000     0.372160000000     0.0515209  
H19      H      0.510430000000     0.151710000000     0.281630000000     0.0514574  
H20      H      0.510580000000     0.101280000000     0.332630000000     0.0234898  
H21      H      0.469000000000     0.270610000000     0.321160000000     0.0370239  
H22      H      0.469630000000     0.321790000000     0.270070000000     0.0368787  
H23      H      0.554440000000     0.253430000000     0.202540000000     0.0371207  
H24      H      0.553810000000     0.202250000000     0.253630000000     0.0367671  
H25      H      0.513000000000     0.372330000000     0.242080000000     0.0515492  
H26      H      0.512880000000     0.422760000000     0.191080000000     0.0235654  
H27      H      0.512570000000     0.332940000000     0.101120000000     0.0234945  
H28      H      0.511980000000     0.281940000000     0.151540000000     0.0514237  
H29      H      0.512940000000     0.922770000000     0.332640000000     0.0238428  
H30      H      0.513070000000     0.872340000000     0.281630000000     0.0516613  
H31      H      0.512010000000     0.781950000000     0.372160000000     0.0516407  
H32      H      0.512600000000     0.832940000000     0.422590000000     0.0236231  
H33      H      0.469680000000     0.821810000000     0.253630000000     0.0367905  
H34      H      0.469030000000     0.770630000000     0.202550000000     0.0369639  
H35      H      0.553840000000     0.702260000000     0.270080000000     0.0370124  
H36      H      0.554480000000     0.753440000000     0.321170000000     0.0372727  
H37      H      0.511500000000     0.742110000000     0.151550000000     0.051437   
H38      H      0.510920000000     0.691120000000     0.101130000000     0.0234281  
H39      H      0.510600000000     0.601290000000     0.191080000000     0.023576   
H40      H      0.510460000000     0.651730000000     0.242080000000     0.0515954  
H41      H      0.510530000000     0.922780000000     0.691080000000     0.0238522  
H42      H      0.510370000000     0.872350000000     0.742080000000     0.0517441  
H43      H      0.511440000000     0.781960000000     0.651560000000     0.05142    
H44      H      0.510890000000     0.832950000000     0.601130000000     0.0234967  
H45      H      0.553730000000     0.821820000000     0.770110000000     0.036957   
H46      H      0.554350000000     0.770640000000     0.821200000000     0.0373309  
H47      H      0.469590000000     0.702260000000     0.753620000000     0.0369072  
H48      H      0.468960000000     0.753440000000     0.702530000000     0.0369947  
H49      H      0.511850000000     0.742120000000     0.872180000000     0.0518059  
H50      H      0.512440000000     0.691120000000     0.922590000000     0.0239431  
H51      H      0.512860000000     0.601300000000     0.832640000000     0.0235496  
H52      H      0.512990000000     0.651730000000     0.781640000000     0.0514804  
H53      H      0.512720000000     0.191120000000     0.601130000000     0.0235564  
H54      H      0.512190000000     0.242110000000     0.651560000000     0.0515229  
H55      H      0.513250000000     0.151710000000     0.742080000000     0.0517153  
H56      H      0.513060000000     0.101280000000     0.691080000000     0.0235952  
H57      H      0.554680000000     0.270610000000     0.702540000000     0.0370376  
H58      H      0.554070000000     0.321790000000     0.753620000000     0.036886   
H59      H      0.469290000000     0.253430000000     0.821200000000     0.0373838  
H60      H      0.469900000000     0.202250000000     0.770110000000     0.0370974  
H61      H      0.510680000000     0.372320000000     0.781640000000     0.0516057  
H62      H      0.510790000000     0.422760000000     0.832640000000     0.0235416  
H63      H      0.511180000000     0.332940000000     0.922590000000     0.023882   
H64      H      0.511780000000     0.281950000000     0.872180000000     0.0517379  
H65      H      0.832600000000     0.422730000000     0.510830000000     0.0235603  
H66      H      0.781620000000     0.372290000000     0.510710000000     0.051553   
H67      H      0.872130000000     0.281910000000     0.511750000000     0.05162    
H68      H      0.922540000000     0.332910000000     0.511150000000     0.0238737  
H69      H      0.753570000000     0.321780000000     0.554050000000     0.0368958  
H70      H      0.702490000000     0.270610000000     0.554660000000     0.0370245  
H71      H      0.770070000000     0.202190000000     0.469930000000     0.0369256  
H72      H      0.821160000000     0.253350000000     0.469320000000     0.0371224  
H73      H      0.651520000000     0.242080000000     0.512200000000     0.0515497  
H74      H      0.601090000000     0.191110000000     0.512740000000     0.0235499  
H75      H      0.690990000000     0.101250000000     0.513080000000     0.0235238  
H76      H      0.742000000000     0.151660000000     0.513250000000     0.0515154  
H77      H      0.832570000000     0.601280000000     0.512610000000     0.02354    
H78      H      0.781580000000     0.651700000000     0.512000000000     0.0515219  
H79      H      0.872070000000     0.742110000000     0.513080000000     0.0516619  
H80      H      0.922490000000     0.691120000000     0.512970000000     0.0238671  
H81      H      0.753030000000     0.702680000000     0.554420000000     0.0370712  
H82      H      0.701900000000     0.753800000000     0.553810000000     0.0369516  
H83      H      0.770440000000     0.821290000000     0.469100000000     0.0370618  
H84      H      0.821570000000     0.770170000000     0.469720000000     0.0368391  
H85      H      0.651400000000     0.781900000000     0.510470000000     0.0515618  
H86      H      0.601000000000     0.832910000000     0.510620000000     0.0235714  
H87      H      0.690950000000     0.922710000000     0.510980000000     0.0238789  
H88      H      0.741920000000     0.872270000000     0.511540000000     0.0517103  
H89      H      0.190990000000     0.422800000000     0.512900000000     0.0235657  
H90      H      0.241990000000     0.372380000000     0.513040000000     0.0515504  
H91      H      0.151510000000     0.281970000000     0.511990000000     0.0514243  
H92      H      0.101090000000     0.332950000000     0.512570000000     0.0234376  
H93      H      0.270060000000     0.321860000000     0.469720000000     0.0368717  
H94      H      0.321150000000     0.270700000000     0.469110000000     0.0370128  
H95      H      0.253570000000     0.202280000000     0.553840000000     0.0366796  
H96      H      0.202480000000     0.253440000000     0.554440000000     0.0368931  
H97      H      0.372130000000     0.242150000000     0.511560000000     0.0514958  
H98      H      0.422540000000     0.191150000000     0.510990000000     0.0235561  
H99      H      0.332610000000     0.101330000000     0.510660000000     0.0234541  
H100     H      0.281620000000     0.151760000000     0.510500000000     0.0513447  
H101     H      0.190950000000     0.601330000000     0.510740000000     0.023549   
H102     H      0.241940000000     0.651760000000     0.510620000000     0.0515465  
H103     H      0.151430000000     0.742150000000     0.511730000000     0.0517203  
H104     H      0.101020000000     0.691150000000     0.511130000000     0.0236038  
H105     H      0.269990000000     0.702270000000     0.553980000000     0.0369259  
H106     H      0.321070000000     0.753430000000     0.554610000000     0.0370882  
H107     H      0.253480000000     0.821890000000     0.469910000000     0.0371529  
H108     H      0.202400000000     0.770720000000     0.469290000000     0.0373787  
H109     H      0.372040000000     0.781970000000     0.512160000000     0.0515282  
H110     H      0.422460000000     0.832950000000     0.512730000000     0.0235518  
H111     H      0.332570000000     0.922810000000     0.513090000000     0.0239705  
H112     H      0.281560000000     0.872390000000     0.513240000000     0.0519274  
H113     H      0.922520000000     0.510300000000     0.332700000000     0.0239401  
H114     H      0.872100000000     0.509490000000     0.281690000000     0.0519372  
H115     H      0.781610000000     0.510440000000     0.372150000000     0.0516962  
H116     H      0.832600000000     0.510540000000     0.422610000000     0.0235734  
H117     H      0.821270000000     0.552400000000     0.253490000000     0.0370714  
H118     H      0.770130000000     0.552430000000     0.202370000000     0.036974   
H119     H      0.702300000000     0.467430000000     0.270190000000     0.0373476  
H120     H      0.753470000000     0.467400000000     0.321330000000     0.0373933  
H121     H      0.741910000000     0.509530000000     0.151530000000     0.0516754  
H122     H      0.690890000000     0.510360000000     0.101120000000     0.0235303  
H123     H      0.601030000000     0.510610000000     0.191090000000     0.0235435  
H124     H      0.651490000000     0.510490000000     0.242080000000     0.0515913  
H125     H      0.100940000000     0.513790000000     0.332650000000     0.0234321  
H126     H      0.151340000000     0.514610000000     0.281610000000     0.0514844  
H127     H      0.241880000000     0.513630000000     0.372040000000     0.0514984  
H128     H      0.190900000000     0.513530000000     0.422520000000     0.0235476  
H129     H      0.202170000000     0.471700000000     0.253380000000     0.036661   
H130     H      0.253320000000     0.471670000000     0.202250000000     0.0367219  
H131     H      0.321140000000     0.556670000000     0.270070000000     0.0373356  
H132     H      0.269980000000     0.556700000000     0.321220000000     0.0373395  
H133     H      0.281580000000     0.514530000000     0.151410000000     0.0516259  
H134     H      0.332620000000     0.513690000000     0.101020000000     0.0235132  
H135     H      0.422440000000     0.513460000000     0.191030000000     0.023532   
H136     H      0.371950000000     0.513580000000     0.242000000000     0.0515451  
H137     H      0.190960000000     0.510600000000     0.601100000000     0.0235223  
H138     H      0.241950000000     0.510480000000     0.651560000000     0.0515117  
H139     H      0.151460000000     0.509460000000     0.742030000000     0.05158    
H140     H      0.101040000000     0.510280000000     0.691010000000     0.023491   
H141     H      0.270090000000     0.467410000000     0.702340000000     0.0373026  
H142     H      0.321260000000     0.467400000000     0.753490000000     0.0373418  
H143     H      0.253430000000     0.552340000000     0.821390000000     0.0366546  
H144     H      0.202280000000     0.552350000000     0.770260000000     0.0366012  
H145     H      0.372070000000     0.510450000000     0.781630000000     0.051462   
H146     H      0.422530000000     0.510550000000     0.832630000000     0.023544   
H147     H      0.332670000000     0.510200000000     0.922600000000     0.0237864  
H148     H      0.281650000000     0.509390000000     0.872190000000     0.0516003  
H149     H      0.922620000000     0.513770000000     0.691070000000     0.0239046  
H150     H      0.872220000000     0.514640000000     0.742110000000     0.0518643  
H151     H      0.781680000000     0.513640000000     0.651680000000     0.0513901  
H152     H      0.832650000000     0.513490000000     0.601200000000     0.0234722  
H153     H      0.821390000000     0.471780000000     0.770370000000     0.0368429  
H154     H      0.770240000000     0.471800000000     0.821500000000     0.0369921  
H155     H      0.702420000000     0.556750000000     0.753610000000     0.0372608  
H156     H      0.753590000000     0.556730000000     0.702460000000     0.0371     
H157     H      0.741980000000     0.514720000000     0.872310000000     0.0518435  
H158     H      0.690940000000     0.513890000000     0.922690000000     0.0239035  
H159     H      0.601120000000     0.513550000000     0.832680000000     0.0235287  
H160     H      0.651610000000     0.513670000000     0.781710000000     0.0514513  
H161     H      0.922370000000     0.832980000000     0.010520000000     0.0237571  
H162     H      0.871890000000     0.782040000000     0.010410000000     0.0515637  
H163     H      0.781500000000     0.872540000000     0.009170000000     0.0516068  
H164     H      0.832540000000     0.922910000000     0.010010000000     0.0237103  
H165     H      0.821220000000     0.753760000000     0.967410000000     0.0376064  
H166     H      0.770100000000     0.702610000000     0.967430000000     0.0375173  
H167     H      0.701960000000     0.770690000000     0.051990000000     0.0368634  
H168     H      0.753060000000     0.821830000000     0.051970000000     0.0369415  
H169     H      0.741850000000     0.651930000000     0.010450000000     0.0514046  
H170     H      0.690910000000     0.601440000000     0.010570000000     0.0233785  
H171     H      0.600890000000     0.691180000000     0.010030000000     0.0234075  
H172     H      0.651250000000     0.742220000000     0.009190000000     0.0514804  
H173     H      0.832670000000     0.101370000000     0.013650000000     0.0233205  
H174     H      0.781690000000     0.151790000000     0.014460000000     0.0512855  
H175     H      0.872170000000     0.242200000000     0.013250000000     0.0515793  
H176     H      0.922590000000     0.191200000000     0.013160000000     0.0236839  
H177     H      0.753330000000     0.202520000000     0.971630000000     0.0370503  
H178     H      0.702220000000     0.253650000000     0.971630000000     0.0370167  
H179     H      0.770360000000     0.321690000000     0.056220000000     0.0372688  
H180     H      0.821480000000     0.270540000000     0.056220000000     0.0373156  
H181     H      0.651520000000     0.282020000000     0.014480000000     0.0512636  
H182     H      0.601120000000     0.333010000000     0.013690000000     0.023367   
H183     H      0.691040000000     0.422840000000     0.013200000000     0.0233732  
H184     H      0.742030000000     0.372400000000     0.013280000000     0.0514688  
H185     H      0.422360000000     0.691060000000     0.013300000000     0.0233867  
H186     H      0.371890000000     0.742010000000     0.013420000000     0.0513719  
H187     H      0.281490000000     0.651510000000     0.014350000000     0.0512224  
H188     H      0.332540000000     0.601140000000     0.013510000000     0.0233462  
H189     H      0.321150000000     0.770210000000     0.056390000000     0.0369277  
H190     H      0.270030000000     0.821360000000     0.056390000000     0.036971   
H191     H      0.202010000000     0.753440000000     0.971610000000     0.0367303  
H192     H      0.253120000000     0.702310000000     0.971600000000     0.0367193  
H193     H      0.241850000000     0.872120000000     0.013430000000     0.0514133  
H194     H      0.190910000000     0.922610000000     0.013330000000     0.0236346  
H195     H      0.100890000000     0.832880000000     0.013580000000     0.0232763  
H196     H      0.151240000000     0.781830000000     0.014400000000     0.0511575  
H197     H      0.101190000000     0.191070000000     0.010510000000     0.0232819  
H198     H      0.151660000000     0.242020000000     0.010400000000     0.0511893  
H199     H      0.242050000000     0.151520000000     0.009220000000     0.0515198  
H200     H      0.191010000000     0.101150000000     0.010060000000     0.0234076  
H201     H      0.202340000000     0.270270000000     0.967400000000     0.0374377  
H202     H      0.253460000000     0.321430000000     0.967390000000     0.0374192  
H203     H      0.321590000000     0.253390000000     0.052000000000     0.0367482  
H204     H      0.270490000000     0.202260000000     0.052000000000     0.0367983  
H205     H      0.281700000000     0.372130000000     0.010390000000     0.0512032  
H206     H      0.332640000000     0.422620000000     0.010490000000     0.0233208  
H207     H      0.422660000000     0.332880000000     0.010020000000     0.0233924  
H208     H      0.372310000000     0.281840000000     0.009200000000     0.0514545  
H209     H      0.832650000000     0.011380000000     0.922580000000     0.0236784  
H210     H      0.781650000000     0.011970000000     0.872140000000     0.0514984  
H211     H      0.872110000000     0.010820000000     0.781630000000     0.0516647  
H212     H      0.922550000000     0.010950000000     0.832650000000     0.0237345  
H213     H      0.753220000000     0.969390000000     0.821120000000     0.0374695  
H214     H      0.702040000000     0.970000000000     0.770010000000     0.037029   
H215     H      0.770380000000     0.054890000000     0.702560000000     0.0372132  
H216     H      0.821550000000     0.054280000000     0.753670000000     0.0370324  
H217     H      0.651480000000     0.013440000000     0.742050000000     0.051411   
H218     H      0.601040000000     0.013270000000     0.691040000000     0.0233795  
H219     H      0.690930000000     0.012880000000     0.601110000000     0.0234369  
H220     H      0.741940000000     0.012330000000     0.651540000000     0.0516108  
H221     H      0.422530000000     0.011160000000     0.691060000000     0.023395   
H222     H      0.372090000000     0.011720000000     0.742070000000     0.0513907  
H223     H      0.281630000000     0.010680000000     0.651560000000     0.0514706  
H224     H      0.332640000000     0.010830000000     0.601120000000     0.0233555  
H225     H      0.321050000000     0.969160000000     0.770470000000     0.0374753  
H226     H      0.269920000000     0.969750000000     0.821630000000     0.0372725  
H227     H      0.202560000000     0.054720000000     0.753300000000     0.0368739  
H228     H      0.253690000000     0.054130000000     0.702140000000     0.0365969  
H229     H      0.241970000000     0.013180000000     0.872210000000     0.0516281  
H230     H      0.190940000000     0.013040000000     0.922640000000     0.0237773  
H231     H      0.101080000000     0.012740000000     0.832680000000     0.0233204  
H232     H      0.151520000000     0.012170000000     0.781680000000     0.0513943  
H233     H      0.332620000000     0.012940000000     0.422610000000     0.0233468  
H234     H      0.281620000000     0.012360000000     0.372180000000     0.0514603  
H235     H      0.372070000000     0.013380000000     0.281660000000     0.0512877  
H236     H      0.422510000000     0.013260000000     0.332670000000     0.023311   
H237     H      0.253190000000     0.054880000000     0.321120000000     0.0371011  
H238     H      0.202010000000     0.054230000000     0.270010000000     0.0368519  
H239     H      0.270320000000     0.969260000000     0.202650000000     0.0370674  
H240     H      0.321500000000     0.969910000000     0.253760000000     0.0368051  
H241     H      0.151440000000     0.010780000000     0.242090000000     0.0515052  
H242     H      0.101010000000     0.010910000000     0.191070000000     0.0233573  
H243     H      0.190910000000     0.011190000000     0.101150000000     0.0232154  
H244     H      0.241910000000     0.011780000000     0.151590000000     0.0511381  
H245     H      0.922500000000     0.013180000000     0.191040000000     0.0235914  
H246     H      0.872060000000     0.013280000000     0.242040000000     0.0513368  
H247     H      0.781610000000     0.012240000000     0.151530000000     0.0513694  
H248     H      0.832620000000     0.012850000000     0.101100000000     0.0232897  
H249     H      0.821500000000     0.969800000000     0.269950000000     0.0368863  
H250     H      0.770330000000     0.969140000000     0.321070000000     0.037053   
H251     H      0.701990000000     0.054100000000     0.253700000000     0.0366447  
H252     H      0.753170000000     0.054750000000     0.202580000000     0.0370279  
H253     H      0.741910000000     0.011670000000     0.372120000000     0.0512069  
H254     H      0.690920000000     0.011100000000     0.422570000000     0.0232565  
H255     H      0.601000000000     0.010780000000     0.332660000000     0.0233519  
H256     H      0.651440000000     0.010640000000     0.281630000000     0.0514122  
H257     H      0.013310000000     0.332930000000     0.601140000000     0.0233348  
H258     H      0.013440000000     0.281950000000     0.651590000000     0.0513246  
H259     H      0.014420000000     0.372390000000     0.742070000000     0.051389   
H260     H      0.013570000000     0.422790000000     0.691060000000     0.0233697  
H261     H      0.056440000000     0.253740000000     0.702340000000     0.0368653  
H262     H      0.056430000000     0.202570000000     0.753460000000     0.0368963  
H263     H      0.971610000000     0.270440000000     0.821470000000     0.0370586  
H264     H      0.971610000000     0.321590000000     0.770370000000     0.0369116  
H265     H      0.013430000000     0.151790000000     0.781640000000     0.051212   
H266     H      0.013320000000     0.101320000000     0.832610000000     0.0232733  
H267     H      0.013630000000     0.191090000000     0.922620000000     0.0236909  
H268     H      0.014460000000     0.242110000000     0.872240000000     0.0514929  
H269     H      0.010320000000     0.922710000000     0.832640000000     0.0237736  
H270     H      0.010220000000     0.872230000000     0.781680000000     0.0516656  
H271     H      0.009180000000     0.781920000000     0.872280000000     0.0515434  
H272     H      0.009990000000     0.832950000000     0.922660000000     0.0236443  
H273     H      0.967220000000     0.821450000000     0.753500000000     0.0376503  
H274     H      0.967230000000     0.770280000000     0.702380000000     0.0375905  
H275     H      0.052050000000     0.702440000000     0.770410000000     0.0365967  
H276     H      0.052050000000     0.753590000000     0.821510000000     0.0366483  
H277     H      0.010220000000     0.742080000000     0.651630000000     0.0515229  
H278     H      0.010330000000     0.691100000000     0.601180000000     0.0234663  
H279     H      0.010090000000     0.601230000000     0.691080000000     0.0233774  
H280     H      0.009260000000     0.651630000000     0.742110000000     0.0514724  
H281     H      0.013000000000     0.832950000000     0.101170000000     0.0233689  
H282     H      0.013090000000     0.781980000000     0.151620000000     0.0514783  
H283     H      0.014300000000     0.872420000000     0.242100000000     0.0514679  
H284     H      0.013500000000     0.922820000000     0.191080000000     0.0236786  
H285     H      0.056110000000     0.753710000000     0.202320000000     0.0372379  
H286     H      0.056110000000     0.702540000000     0.253440000000     0.0372243  
H287     H      0.971440000000     0.770520000000     0.321550000000     0.0367916  
H288     H      0.971450000000     0.821670000000     0.270450000000     0.0368389  
H289     H      0.013100000000     0.651820000000     0.281670000000     0.0513805  
H290     H      0.013030000000     0.601350000000     0.332640000000     0.0233681  
H291     H      0.013540000000     0.691110000000     0.422650000000     0.0233543  
H292     H      0.014320000000     0.742140000000     0.372270000000     0.051283   
H293     H      0.010370000000     0.101360000000     0.191080000000     0.0232672  
H294     H      0.010270000000     0.151830000000     0.242040000000     0.0512169  
H295     H      0.009300000000     0.242150000000     0.151440000000     0.0513814  
H296     H      0.010120000000     0.191120000000     0.101060000000     0.0233204  
H297     H      0.967270000000     0.202610000000     0.270210000000     0.0373052  
H298     H      0.967240000000     0.253780000000     0.321320000000     0.037214   
H299     H      0.052090000000     0.321630000000     0.253330000000     0.0365935  
H300     H      0.052120000000     0.270480000000     0.202230000000     0.0366724  
H301     H      0.010230000000     0.281980000000     0.372090000000     0.0512095  
H302     H      0.010320000000     0.332960000000     0.422540000000     0.0233184  
H303     H      0.010060000000     0.422830000000     0.332640000000     0.0233637  
H304     H      0.009250000000     0.372430000000     0.281620000000     0.0514713  
N1       N      0.510800000000     0.142230000000     0.381580000000    -0.192572   
N2       N      0.512670000000     0.381830000000     0.142130000000    -0.192577   
N3       N      0.512720000000     0.881830000000     0.381580000000    -0.192534   
N4       N      0.510810000000     0.642230000000     0.142130000000    -0.192644   
N5       N      0.510760000000     0.881830000000     0.642140000000    -0.192491   
N6       N      0.512600000000     0.642240000000     0.881590000000    -0.192516   
N7       N      0.512830000000     0.142230000000     0.642140000000    -0.192524   
N8       N      0.511030000000     0.381830000000     0.881580000000    -0.192546   
N9       N      0.881540000000     0.381800000000     0.511040000000    -0.192443   
N10      N      0.642070000000     0.142210000000     0.512860000000    -0.192493   
N11      N      0.881500000000     0.642220000000     0.512740000000    -0.192492   
N12      N      0.642000000000     0.881780000000     0.510860000000    -0.192426   
N13      N      0.142060000000     0.381840000000     0.512680000000    -0.192562   
N14      N      0.381550000000     0.142270000000     0.510880000000    -0.19252    
N15      N      0.142020000000     0.642270000000     0.510990000000    -0.192519   
N16      N      0.381490000000     0.881850000000     0.512860000000    -0.192486   
N17      N      0.881520000000     0.510520000000     0.381630000000    -0.192641   
N18      N      0.641990000000     0.510580000000     0.142140000000    -0.192675   
N19      N      0.141960000000     0.513560000000     0.381550000000    -0.192657   
N20      N      0.381500000000     0.513480000000     0.142060000000    -0.192746   
N21      N      0.142030000000     0.510530000000     0.642090000000    -0.192727   
N22      N      0.381570000000     0.510470000000     0.881580000000    -0.192611   
N23      N      0.881600000000     0.513540000000     0.642160000000    -0.192627   
N24      N      0.642060000000     0.513620000000     0.881650000000    -0.192582   
N25      N      0.881430000000     0.881920000000     0.010360000000    -0.192491   
N26      N      0.641940000000     0.642330000000     0.010390000000    -0.192583   
N27      N      0.881600000000     0.142320000000     0.013310000000    -0.192542   
N28      N      0.642110000000     0.381900000000     0.013350000000    -0.192619   
N29      N      0.381430000000     0.642130000000     0.013320000000    -0.192628   
N30      N      0.141930000000     0.881720000000     0.013360000000    -0.192493   
N31      N      0.142120000000     0.142140000000     0.010380000000    -0.192588   
N32      N      0.381620000000     0.381730000000     0.010350000000    -0.192601   
N33      N      0.881560000000     0.011220000000     0.881580000000    -0.192586   
N34      N      0.642020000000     0.013020000000     0.642110000000    -0.192745   
N35      N      0.381550000000     0.011050000000     0.642120000000    -0.192743   
N36      N      0.142040000000     0.012840000000     0.881620000000    -0.192608   
N37      N      0.381540000000     0.013040000000     0.381610000000    -0.192834   
N38      N      0.141990000000     0.011100000000     0.142140000000    -0.192758   
N39      N      0.881520000000     0.012960000000     0.142100000000    -0.192659   
N40      N      0.642000000000     0.011000000000     0.381580000000    -0.192723   
N41      N      0.013340000000     0.381830000000     0.642130000000    -0.192607   
N42      N      0.013370000000     0.142230000000     0.881590000000    -0.192588   
N43      N      0.010250000000     0.881800000000     0.881620000000    -0.192522   
N44      N      0.010300000000     0.642200000000     0.642160000000    -0.192649   
N45      N      0.013170000000     0.881860000000     0.142150000000    -0.192629   
N46      N      0.013190000000     0.642250000000     0.381620000000    -0.192674   
N47      N      0.010340000000     0.142260000000     0.142100000000    -0.192681   
N48      N      0.010280000000     0.381860000000     0.381560000000    -0.192653   
O1       O      0.011090000000     0.124470000000     0.076460000000    -0.37679    
O2       O      0.012430000000     0.899600000000     0.076490000000    -0.376633   
O3       O      0.947170000000     0.012620000000     0.124350000000    -0.37627    
O4       O      0.076350000000     0.011470000000     0.124380000000    -0.376839   
O5       O      0.124240000000     0.011420000000     0.076480000000    -0.376876   
O6       O      0.899290000000     0.012640000000     0.076450000000    -0.376898   
O7       O      0.012530000000     0.947470000000     0.124380000000    -0.375961   
O8       O      0.010990000000     0.076630000000     0.124380000000    -0.376666   
O9       O      0.051870000000     0.971900000000     0.052010000000    -0.506367   
O10      O      0.971670000000     0.052180000000     0.051990000000    -0.506364   
O11      O      0.971470000000     0.971800000000     0.052140000000    -0.65085    
O12      O      0.052070000000     0.052270000000     0.052140000000    -0.652535   
O13      O      0.010970000000     0.899590000000     0.947260000000    -0.37603    
O14      O      0.012610000000     0.124450000000     0.947230000000    -0.376027   
O15      O      0.899240000000     0.947530000000     0.011030000000    -0.375745   
O16      O      0.124230000000     0.947370000000     0.012690000000    -0.375793   
O17      O      0.124310000000     0.076530000000     0.011060000000    -0.376528   
O18      O      0.899340000000     0.076690000000     0.012650000000    -0.376441   
O19      O      0.947200000000     0.011510000000     0.899340000000    -0.376181   
O20      O      0.076390000000     0.012530000000     0.899360000000    -0.376687   
O21      O      0.899310000000     0.011560000000     0.947240000000    -0.376091   
O22      O      0.124270000000     0.012500000000     0.947280000000    -0.376175   
O23      O      0.947090000000     0.899620000000     0.011120000000    -0.375828   
O24      O      0.947250000000     0.124530000000     0.012570000000    -0.375859   
O25      O      0.076460000000     0.124430000000     0.011120000000    -0.376629   
O26      O      0.076300000000     0.899540000000     0.012620000000    -0.376567   
O27      O      0.010950000000     0.947440000000     0.899340000000    -0.375814   
O28      O      0.012650000000     0.076590000000     0.899320000000    -0.376427   
O29      O      0.051940000000     0.052110000000     0.971720000000    -0.506265   
O30      O      0.971630000000     0.971940000000     0.971720000000    -0.504432   
O31      O      0.971540000000     0.052320000000     0.971560000000    -0.650758   
O32      O      0.052030000000     0.971730000000     0.971590000000    -0.650804   
O33      O      0.010970000000     0.399600000000     0.447230000000    -0.37683    
O34      O      0.012550000000     0.624470000000     0.447260000000    -0.376931   
O35      O      0.947160000000     0.511280000000     0.399380000000    -0.376122   
O36      O      0.076330000000     0.512810000000     0.399340000000    -0.376818   
O37      O      0.124240000000     0.512870000000     0.447220000000    -0.376797   
O38      O      0.899280000000     0.511200000000     0.447280000000    -0.376817   
O39      O      0.012470000000     0.576620000000     0.399340000000    -0.376845   
O40      O      0.011020000000     0.447480000000     0.399340000000    -0.376788   
O41      O      0.051890000000     0.552160000000     0.471720000000    -0.507781   
O42      O      0.971650000000     0.471920000000     0.471730000000    -0.506683   
O43      O      0.971490000000     0.552290000000     0.471590000000    -0.652098   
O44      O      0.052050000000     0.471790000000     0.471560000000    -0.652715   
O45      O      0.010970000000     0.624460000000     0.576490000000    -0.376811   
O46      O      0.012640000000     0.399580000000     0.576460000000    -0.376827   
O47      O      0.899270000000     0.576600000000     0.512420000000    -0.376578   
O48      O      0.124270000000     0.576640000000     0.511300000000    -0.376585   
O49      O      0.124290000000     0.447470000000     0.512360000000    -0.37651    
O50      O      0.899290000000     0.447430000000     0.511360000000    -0.376439   
O51      O      0.947230000000     0.512770000000     0.624380000000    -0.376106   
O52      O      0.076400000000     0.511280000000     0.624330000000    -0.376827   
O53      O      0.899320000000     0.512840000000     0.576500000000    -0.376765   
O54      O      0.124280000000     0.511220000000     0.576430000000    -0.37683    
O55      O      0.947150000000     0.624470000000     0.512420000000    -0.375798   
O56      O      0.947190000000     0.399570000000     0.511340000000    -0.375894   
O57      O      0.076410000000     0.399600000000     0.512370000000    -0.376514   
O58      O      0.076370000000     0.624490000000     0.511330000000    -0.37653    
O59      O      0.011060000000     0.576590000000     0.624380000000    -0.376878   
O60      O      0.012570000000     0.447450000000     0.624360000000    -0.376891   
O61      O      0.051930000000     0.471920000000     0.551980000000    -0.507623   
O62      O      0.971650000000     0.552130000000     0.552010000000    -0.506764   
O63      O      0.971520000000     0.471760000000     0.552150000000    -0.652177   
O64      O      0.052060000000     0.552290000000     0.552140000000    -0.653036   
O65      O      0.624250000000     0.011370000000     0.447240000000    -0.377079   
O66      O      0.399300000000     0.012680000000     0.447260000000    -0.377104   
O67      O      0.512370000000     0.947460000000     0.399340000000    -0.375811   
O68      O      0.511160000000     0.076600000000     0.399340000000    -0.376486   
O69      O      0.511170000000     0.124470000000     0.447240000000    -0.376642   
O70      O      0.512370000000     0.899590000000     0.447240000000    -0.376572   
O71      O      0.447180000000     0.012670000000     0.399360000000    -0.377174   
O72      O      0.576350000000     0.011390000000     0.399350000000    -0.377066   
O73      O      0.471640000000     0.052170000000     0.471710000000    -0.507575   
O74      O      0.551910000000     0.971890000000     0.471700000000    -0.506601   
O75      O      0.471510000000     0.971790000000     0.471590000000    -0.652306   
O76      O      0.552050000000     0.052260000000     0.471580000000    -0.653191   
O77      O      0.399310000000     0.011420000000     0.576470000000    -0.377141   
O78      O      0.624260000000     0.012640000000     0.576450000000    -0.377033   
O79      O      0.447140000000     0.899600000000     0.512480000000    -0.376489   
O80      O      0.447200000000     0.124490000000     0.511240000000    -0.37652    
O81      O      0.576410000000     0.124460000000     0.512480000000    -0.376579   
O82      O      0.576350000000     0.899570000000     0.511230000000    -0.376533   
O83      O      0.511150000000     0.947460000000     0.624380000000    -0.375766   
O84      O      0.512430000000     0.076600000000     0.624380000000    -0.376406   
O85      O      0.511130000000     0.899590000000     0.576470000000    -0.376653   
O86      O      0.512440000000     0.124470000000     0.576470000000    -0.376668   
O87      O      0.399260000000     0.947480000000     0.512480000000    -0.375722   
O88      O      0.624260000000     0.947420000000     0.511230000000    -0.375744   
O89      O      0.624290000000     0.076580000000     0.512470000000    -0.376411   
O90      O      0.399290000000     0.076640000000     0.511240000000    -0.37644    
O91      O      0.447200000000     0.011420000000     0.624370000000    -0.377054   
O92      O      0.576380000000     0.012650000000     0.624350000000    -0.3771     
O93      O      0.551930000000     0.052150000000     0.552000000000    -0.507607   
O94      O      0.471630000000     0.971910000000     0.552010000000    -0.506616   
O95      O      0.552030000000     0.971780000000     0.552120000000    -0.65223    
O96      O      0.471530000000     0.052290000000     0.552130000000    -0.653248   
O97      O      0.399320000000     0.447370000000     0.011100000000    -0.376809   
O98      O      0.624330000000     0.447530000000     0.012610000000    -0.376732   
O99      O      0.511330000000     0.399590000000     0.947240000000    -0.375914   
O100     O      0.512370000000     0.399590000000     0.076470000000    -0.376659   
O101     O      0.512320000000     0.447450000000     0.124380000000    -0.37666    
O102     O      0.511320000000     0.447450000000     0.899330000000    -0.37659    
O103     O      0.576460000000     0.399650000000     0.012680000000    -0.376786   
O104     O      0.447250000000     0.399550000000     0.011030000000    -0.376827   
O105     O      0.551920000000     0.471950000000     0.052010000000    -0.50773    
O106     O      0.471690000000     0.471890000000     0.971700000000    -0.506723   
O107     O      0.552100000000     0.471800000000     0.971590000000    -0.652174   
O108     O      0.471520000000     0.471750000000     0.052130000000    -0.652904   
O109     O      0.624240000000     0.576690000000     0.011150000000    -0.376676   
O110     O      0.399240000000     0.576530000000     0.012570000000    -0.376791   
O111     O      0.576400000000     0.512890000000     0.899360000000    -0.376712   
O112     O      0.576340000000     0.511250000000     0.124390000000    -0.376751   
O113     O      0.447160000000     0.512810000000     0.124350000000    -0.376735   
O114     O      0.447220000000     0.511180000000     0.899330000000    -0.376694   
O115     O      0.512260000000     0.624470000000     0.947240000000    -0.375876   
O116     O      0.511150000000     0.624470000000     0.076470000000    -0.376568   
O117     O      0.512300000000     0.576610000000     0.899330000000    -0.376586   
O118     O      0.511180000000     0.576610000000     0.124380000000    -0.376668   
O119     O      0.624260000000     0.512860000000     0.947290000000    -0.376128   
O120     O      0.399330000000     0.511210000000     0.947230000000    -0.37608    
O121     O      0.399290000000     0.512710000000     0.076430000000    -0.376777   
O122     O      0.624230000000     0.511340000000     0.076490000000    -0.376833   
O123     O      0.576300000000     0.624510000000     0.011060000000    -0.376677   
O124     O      0.447090000000     0.624430000000     0.012650000000    -0.376797   
O125     O      0.471610000000     0.552110000000     0.051990000000    -0.50769    
O126     O      0.551890000000     0.552170000000     0.971730000000    -0.506679   
O127     O      0.471480000000     0.552260000000     0.971560000000    -0.652125   
O128     O      0.552020000000     0.552310000000     0.052150000000    -0.652821   
Zr1      Zr     0.011770000000     0.012050000000     0.091800000000     1.42537    
Zr2      Zr     0.011720000000     0.932140000000     0.011870000000     1.42546    
Zr3      Zr     0.011830000000     0.091920000000     0.011850000000     1.42528    
Zr4      Zr     0.931860000000     0.012080000000     0.011850000000     1.42546    
Zr5      Zr     0.091700000000     0.011970000000     0.011870000000     1.42538    
Zr6      Zr     0.011790000000     0.012020000000     0.931910000000     1.42541    
Zr7      Zr     0.011760000000     0.512050000000     0.431920000000     1.42768    
Zr8      Zr     0.011770000000     0.591920000000     0.511870000000     1.4275     
Zr9      Zr     0.011790000000     0.432130000000     0.511850000000     1.42738    
Zr10     Zr     0.931850000000     0.512020000000     0.511880000000     1.42972    
Zr11     Zr     0.091710000000     0.512050000000     0.511840000000     1.42957    
Zr12     Zr     0.011800000000     0.512020000000     0.591790000000     1.4277     
Zr13     Zr     0.511770000000     0.012030000000     0.431920000000     1.42775    
Zr14     Zr     0.431850000000     0.012050000000     0.511860000000     1.42748    
Zr15     Zr     0.591700000000     0.012010000000     0.511850000000     1.42762    
Zr16     Zr     0.511760000000     0.932140000000     0.511860000000     1.42981    
Zr17     Zr     0.511800000000     0.091920000000     0.511860000000     1.42958    
Zr18     Zr     0.511780000000     0.012030000000     0.591800000000     1.42763    
Zr19     Zr     0.511830000000     0.432140000000     0.011860000000     1.42746    
Zr20     Zr     0.591700000000     0.512080000000     0.011880000000     1.42768    
Zr21     Zr     0.431860000000     0.511970000000     0.011840000000     1.42756    
Zr22     Zr     0.511800000000     0.512030000000     0.931910000000     1.42969    
Zr23     Zr     0.511760000000     0.512030000000     0.091810000000     1.42965    
Zr24     Zr     0.511720000000     0.591920000000     0.011860000000     1.42734    


