data_structure

_audit_creation_method RASPA-1.0
_audit_creation_date 2023-5-19
_audit_author_name 'Poobodin Mano'

_cell_length_a    33.7316
_cell_length_b    33.747
_cell_length_c    33.7376
_cell_angle_alpha 90
_cell_angle_beta  90
_cell_angle_gamma 90
_cell_volume      38404.9

_symmetry_cell_setting          triclinic
_symmetry_space_group_name_Hall 'P 1'
_symmetry_space_group_name_H-M  'P 1'
_symmetry_Int_Tables_number     1

_symmetry_equiv_pos_as_xyz 'x,y,z'

loop_
_atom_site_label
_atom_site_type_symbol
_atom_site_fract_x
_atom_site_fract_y
_atom_site_fract_z
_atom_site_charge
C1       C      0.982650000000     0.086310000000     0.085900000000     0.397464   
C2       C      0.987320000000     0.884110000000     0.087210000000     0.396214   
C3       C      0.883870000000     0.984510000000     0.086550000000     0.405324   
C4       C      0.086520000000     0.985610000000     0.086000000000     0.396366   
C5       C      0.984450000000     0.882550000000     0.884340000000     0.397102   
C6       C      0.985010000000     0.085250000000     0.883180000000     0.397221   
C7       C      0.884800000000     0.882080000000     0.984980000000     0.396839   
C8       C      0.087930000000     0.884950000000     0.986280000000     0.405083   
C9       C      0.084630000000     0.087600000000     0.984180000000     0.396485   
C10      C      0.882010000000     0.084420000000     0.985990000000     0.406517   
C11      C      0.883350000000     0.982220000000     0.884010000000     0.397119   
C12      C      0.085800000000     0.986050000000     0.883650000000     0.39879    
C13      C      0.985720000000     0.384450000000     0.382140000000     0.404575   
C14      C      0.985460000000     0.586780000000     0.384410000000     0.405576   
C15      C      0.884760000000     0.483490000000     0.382620000000     0.404386   
C16      C      0.087230000000     0.487220000000     0.384270000000     0.396424   
C17      C      0.983240000000     0.584390000000     0.587570000000     0.405136   
C18      C      0.986420000000     0.381630000000     0.584770000000     0.405113   
C19      C      0.882470000000     0.584410000000     0.486540000000     0.405767   
C20      C      0.085650000000     0.586840000000     0.485110000000     0.4058     
C21      C      0.087990000000     0.384450000000     0.485640000000     0.406123   
C22      C      0.885350000000     0.381630000000     0.482150000000     0.405013   
C23      C      0.883580000000     0.483500000000     0.585660000000     0.39672    
C24      C      0.086200000000     0.483680000000     0.586400000000     0.396739   
C25      C      0.585190000000     0.983910000000     0.382160000000     0.397859   
C26      C      0.382670000000     0.987000000000     0.384500000000     0.405258   
C27      C      0.484630000000     0.883580000000     0.382830000000     0.398018   
C28      C      0.482910000000     0.086200000000     0.383770000000     0.405246   
C29      C      0.385190000000     0.982730000000     0.586860000000     0.407587   
C30      C      0.587860000000     0.983610000000     0.584770000000     0.405455   
C31      C      0.383010000000     0.884140000000     0.486420000000     0.397257   
C32      C      0.384410000000     0.086390000000     0.485180000000     0.397009   
C33      C      0.587010000000     0.085280000000     0.484920000000     0.397744   
C34      C      0.585930000000     0.882680000000     0.482580000000     0.395304   
C35      C      0.485060000000     0.882030000000     0.585120000000     0.404784   
C36      C      0.487270000000     0.084650000000     0.586960000000     0.396534   
C37      C      0.383160000000     0.383690000000     0.987090000000     0.404378   
C38      C      0.384240000000     0.586280000000     0.984140000000     0.396962   
C39      C      0.383960000000     0.484300000000     0.086530000000     0.406285   
C40      C      0.382800000000     0.484950000000     0.884200000000     0.406633   
C41      C      0.587190000000     0.584970000000     0.985450000000     0.4056     
C42      C      0.585810000000     0.382620000000     0.983970000000     0.397294   
C43      C      0.487270000000     0.586640000000     0.085410000000     0.406368   
C44      C      0.483910000000     0.585500000000     0.883080000000     0.398227   
C45      C      0.484490000000     0.382800000000     0.883710000000     0.405132   
C46      C      0.483640000000     0.383910000000     0.086710000000     0.395918   
C47      C      0.586790000000     0.485430000000     0.085550000000     0.395588   
C48      C      0.585580000000     0.483460000000     0.882600000000     0.404729   
C49      C      0.479090000000     0.135540000000     0.286010000000    -0.165225   
C50      C      0.483560000000     0.365950000000     0.155180000000     0.0709552  
C51      C      0.481550000000     0.315830000000     0.106020000000     0.0701265  
C52      C      0.482940000000     0.337390000000     0.185130000000    -0.0928399  
C53      C      0.505070000000     0.269840000000     0.240600000000    -0.0383827  
C54      C      0.504790000000     0.240590000000     0.269950000000    -0.029521   
C55      C      0.480830000000     0.266300000000     0.206870000000    -0.00455123 
C56      C      0.480760000000     0.286510000000     0.135250000000    -0.0927208  
C57      C      0.480220000000     0.207130000000     0.266280000000    -0.0189934  
C58      C      0.482640000000     0.184680000000     0.337280000000    -0.11206    
C59      C      0.455690000000     0.203820000000     0.232730000000    -0.0293729  
C60      C      0.483190000000     0.154420000000     0.365530000000     0.0807108  
C61      C      0.479440000000     0.105740000000     0.314840000000     0.241436   
C62      C      0.456020000000     0.233020000000     0.203370000000    -0.0383493  
C63      C      0.481500000000     0.297110000000     0.175380000000     0.0482359  
C64      C      0.480610000000     0.175450000000     0.296940000000     0.0807377  
C65      C      0.489390000000     0.684870000000     0.133770000000    -0.165562   
C66      C      0.484550000000     0.815330000000     0.364280000000     0.0718127  
C67      C      0.485440000000     0.864920000000     0.314540000000     0.0716554  
C68      C      0.484860000000     0.785660000000     0.335470000000    -0.0923536  
C69      C      0.508780000000     0.730020000000     0.269050000000    -0.0382253  
C70      C      0.509110000000     0.700650000000     0.239850000000    -0.0298232  
C71      C      0.485850000000     0.764490000000     0.264200000000    -0.00445769 
C72      C      0.485780000000     0.835960000000     0.284960000000    -0.0923419  
C73      C      0.486600000000     0.705140000000     0.205090000000    -0.0191447  
C74      C      0.486110000000     0.634020000000     0.183400000000    -0.112445   
C75      C      0.463590000000     0.739530000000     0.200280000000    -0.0295303  
C76      C      0.486400000000     0.605500000000     0.153440000000     0.0810703  
C77      C      0.490000000000     0.655750000000     0.104270000000     0.241726   
C78      C      0.463200000000     0.768860000000     0.229500000000    -0.0382109  
C79      C      0.485510000000     0.795750000000     0.295240000000     0.0486438  
C80      C      0.487350000000     0.674250000000     0.173740000000     0.0810202  
C81      C      0.485220000000     0.783790000000     0.633550000000    -0.165006   
C82      C      0.483440000000     0.653750000000     0.864470000000     0.0723467  
C83      C      0.483500000000     0.604100000000     0.814770000000     0.0730038  
C84      C      0.483340000000     0.683400000000     0.835610000000    -0.0921124  
C85      C      0.507850000000     0.700340000000     0.730560000000    -0.0384285  
C86      C      0.508180000000     0.729610000000     0.701290000000    -0.0291228  
C87      C      0.483780000000     0.704400000000     0.764310000000    -0.00394701 
C88      C      0.483510000000     0.633020000000     0.785160000000    -0.0910111  
C89      C      0.484370000000     0.763610000000     0.705020000000    -0.0189909  
C90      C      0.483750000000     0.834730000000     0.683160000000    -0.111365   
C91      C      0.460390000000     0.767750000000     0.738850000000    -0.0292306  
C92      C      0.484030000000     0.863210000000     0.653150000000     0.0790629  
C93      C      0.485730000000     0.812860000000     0.603980000000     0.240515   
C94      C      0.460110000000     0.738480000000     0.768170000000    -0.0382859  
C95      C      0.483470000000     0.673230000000     0.795400000000     0.0488528  
C96      C      0.484400000000     0.794460000000     0.673560000000     0.0802878  
C97      C      0.482430000000     0.333050000000     0.786080000000    -0.164909   
C98      C      0.488780000000     0.102520000000     0.655460000000     0.0719817  
C99      C      0.486870000000     0.152720000000     0.606390000000     0.0715163  
C100     C      0.488970000000     0.131070000000     0.685450000000    -0.0915233  
C101     C      0.465940000000     0.197000000000     0.742300000000    -0.0380153  
C102     C      0.465510000000     0.226300000000     0.771620000000    -0.0292599  
C103     C      0.488000000000     0.202270000000     0.707300000000    -0.0040987  
C104     C      0.486960000000     0.182010000000     0.635640000000    -0.0921957  
C105     C      0.487020000000     0.261610000000     0.766550000000    -0.0187264  
C106     C      0.488040000000     0.284240000000     0.837480000000    -0.110882   
C107     C      0.509340000000     0.266730000000     0.731740000000    -0.0293559  
C108     C      0.487350000000     0.314580000000     0.865640000000     0.081889   
C109     C      0.481860000000     0.362950000000     0.814810000000     0.240598   
C110     C      0.509870000000     0.237420000000     0.702500000000    -0.0382241  
C111     C      0.488010000000     0.171410000000     0.675780000000     0.0484653  
C112     C      0.485830000000     0.293300000000     0.797130000000     0.0808577  
C113     C      0.837120000000     0.283260000000     0.480270000000    -0.16524    
C114     C      0.605860000000     0.153480000000     0.485480000000     0.0719228  
C115     C      0.655390000000     0.103680000000     0.484070000000     0.0725064  
C116     C      0.634830000000     0.183040000000     0.485140000000    -0.0925102  
C117     C      0.702820000000     0.237830000000     0.507250000000    -0.0383312  
C118     C      0.732190000000     0.267040000000     0.506600000000    -0.0294477  
C119     C      0.706220000000     0.203840000000     0.483400000000    -0.0041512  
C120     C      0.685100000000     0.132510000000     0.483610000000    -0.0912845  
C121     C      0.765630000000     0.262960000000     0.482060000000    -0.0190734  
C122     C      0.787420000000     0.334070000000     0.482680000000    -0.112077   
C123     C      0.768940000000     0.229010000000     0.458110000000    -0.0291826  
C124     C      0.817360000000     0.362620000000     0.482560000000     0.0805577  
C125     C      0.866640000000     0.312420000000     0.479950000000     0.240317   
C126     C      0.739600000000     0.199790000000     0.458800000000    -0.0383622  
C127     C      0.675010000000     0.172750000000     0.484100000000     0.0486518  
C128     C      0.797090000000     0.293830000000     0.481640000000     0.0806677  
C129     C      0.784040000000     0.632640000000     0.487810000000    -0.165109   
C130     C      0.654190000000     0.863880000000     0.482170000000     0.0700293  
C131     C      0.604390000000     0.814340000000     0.483140000000     0.0700129  
C132     C      0.683770000000     0.834930000000     0.482610000000    -0.0927117  
C133     C      0.738840000000     0.767010000000     0.460820000000    -0.0385155  
C134     C      0.768050000000     0.737640000000     0.461630000000    -0.0294297  
C135     C      0.704610000000     0.763550000000     0.484360000000    -0.00449279 
C136     C      0.633230000000     0.784650000000     0.483680000000    -0.092765   
C137     C      0.763750000000     0.704130000000     0.486020000000    -0.0191544  
C138     C      0.834900000000     0.682320000000     0.485910000000    -0.112329   
C139     C      0.729570000000     0.700760000000     0.509660000000    -0.0293148  
C140     C      0.863450000000     0.652380000000     0.486190000000     0.0810609  
C141     C      0.813210000000     0.603130000000     0.488290000000     0.241455   
C142     C      0.700350000000     0.730100000000     0.508820000000    -0.0385874  
C143     C      0.673500000000     0.794750000000     0.483480000000     0.0480072  
C144     C      0.794630000000     0.672670000000     0.486610000000     0.0808124  
C145     C      0.186360000000     0.336200000000     0.487890000000    -0.164783   
C146     C      0.316160000000     0.105100000000     0.484470000000     0.0702286  
C147     C      0.365910000000     0.154690000000     0.485840000000     0.0711546  
C148     C      0.286560000000     0.134010000000     0.484560000000    -0.093086   
C149     C      0.231920000000     0.201880000000     0.461630000000    -0.0382154  
C150     C      0.202720000000     0.231260000000     0.461900000000    -0.0294083  
C151     C      0.265690000000     0.205330000000     0.485810000000    -0.00455555 
C152     C      0.337040000000     0.184340000000     0.486070000000    -0.0928603  
C153     C      0.206600000000     0.264740000000     0.486400000000    -0.0186672  
C154     C      0.135500000000     0.286560000000     0.485050000000    -0.110837   
C155     C      0.240300000000     0.268080000000     0.510700000000    -0.0291255  
C156     C      0.106970000000     0.316500000000     0.484970000000     0.0821204  
C157     C      0.157210000000     0.365720000000     0.488030000000     0.241796   
C158     C      0.269520000000     0.238750000000     0.510380000000    -0.0382447  
C159     C      0.296800000000     0.174190000000     0.485440000000     0.0484624  
C160     C      0.175750000000     0.296200000000     0.486450000000     0.081077   
C161     C      0.183350000000     0.636390000000     0.484200000000    -0.165188   
C162     C      0.314490000000     0.866440000000     0.488150000000     0.0726807  
C163     C      0.363450000000     0.816110000000     0.486470000000     0.0725412  
C164     C      0.284440000000     0.837990000000     0.488580000000    -0.0910821  
C165     C      0.266880000000     0.732170000000     0.510710000000    -0.0382067  
C166     C      0.237510000000     0.702990000000     0.510470000000    -0.0291879  
C167     C      0.262410000000     0.766920000000     0.488180000000    -0.00381167 
C168     C      0.334120000000     0.786900000000     0.486880000000    -0.0909171  
C169     C      0.202920000000     0.707850000000     0.487730000000    -0.0190622  
C170     C      0.131920000000     0.685380000000     0.487790000000    -0.112091   
C171     C      0.198200000000     0.742780000000     0.465540000000    -0.0294891  
C172     C      0.103710000000     0.655090000000     0.487020000000     0.0809273  
C173     C      0.154560000000     0.606570000000     0.483110000000     0.241751   
C174     C      0.227620000000     0.771970000000     0.465740000000    -0.0383626  
C175     C      0.294020000000     0.797640000000     0.487920000000     0.0485581  
C176     C      0.172300000000     0.676200000000     0.486640000000     0.0810184  
C177     C      0.836390000000     0.483110000000     0.284270000000    -0.164625   
C178     C      0.605440000000     0.486210000000     0.153820000000     0.0708158  
C179     C      0.655140000000     0.485540000000     0.104170000000     0.0700047  
C180     C      0.634310000000     0.486240000000     0.183480000000    -0.0927044  
C181     C      0.740220000000     0.508530000000     0.200340000000    -0.0379736  
C182     C      0.769500000000     0.508220000000     0.229660000000    -0.0295752  
C183     C      0.705650000000     0.485660000000     0.204640000000    -0.00463791 
C184     C      0.684770000000     0.485590000000     0.133130000000    -0.0924977  
C185     C      0.764920000000     0.485030000000     0.263990000000    -0.0184909  
C186     C      0.786730000000     0.484630000000     0.335170000000    -0.110792   
C187     C      0.730280000000     0.462290000000     0.268380000000    -0.0298662  
C188     C      0.816710000000     0.484140000000     0.363710000000     0.0812928  
C189     C      0.865930000000     0.482320000000     0.313410000000     0.241449   
C190     C      0.701010000000     0.462580000000     0.239050000000    -0.0381178  
C191     C      0.674550000000     0.485860000000     0.173370000000     0.048173   
C192     C      0.796360000000     0.484310000000     0.294890000000     0.0805619  
C193     C      0.286140000000     0.482530000000     0.135810000000    -0.165277   
C194     C      0.155670000000     0.488520000000     0.366260000000     0.0717414  
C195     C      0.106430000000     0.486780000000     0.316160000000     0.0717628  
C196     C      0.185580000000     0.488250000000     0.337660000000    -0.0913756  
C197     C      0.241060000000     0.509940000000     0.269880000000    -0.0380224  
C198     C      0.270390000000     0.509170000000     0.240610000000    -0.0289519  
C199     C      0.207150000000     0.485940000000     0.266540000000    -0.00368481 
C200     C      0.135610000000     0.486360000000     0.286810000000    -0.0910683  
C201     C      0.266470000000     0.484360000000     0.207370000000    -0.0189195  
C202     C      0.337470000000     0.485560000000     0.184980000000    -0.112285   
C203     C      0.232720000000     0.460100000000     0.204250000000    -0.0288522  
C204     C      0.365720000000     0.485390000000     0.154740000000     0.0812203  
C205     C      0.314980000000     0.482160000000     0.106030000000     0.241911   
C206     C      0.203400000000     0.460910000000     0.233460000000    -0.0380749  
C207     C      0.175740000000     0.486960000000     0.297380000000     0.0486921  
C208     C      0.297120000000     0.484140000000     0.175710000000     0.081347   
C209     C      0.284580000000     0.484030000000     0.835670000000    -0.164639   
C210     C      0.154490000000     0.484110000000     0.604910000000     0.0714683  
C211     C      0.104890000000     0.483170000000     0.654670000000     0.0709654  
C212     C      0.184180000000     0.484330000000     0.633720000000    -0.0917994  
C213     C      0.200730000000     0.507860000000     0.739210000000    -0.0378103  
C214     C      0.230010000000     0.508230000000     0.768490000000    -0.0294295  
C215     C      0.205300000000     0.484550000000     0.704990000000    -0.00431851 
C216     C      0.133850000000     0.483420000000     0.684240000000    -0.0925102  
C217     C      0.264550000000     0.485300000000     0.764220000000    -0.0184644  
C218     C      0.335610000000     0.486030000000     0.786130000000    -0.110667   
C219     C      0.269220000000     0.462140000000     0.729910000000    -0.0296609  
C220     C      0.364060000000     0.485900000000     0.816160000000     0.0829898  
C221     C      0.313630000000     0.483600000000     0.865260000000     0.241905   
C222     C      0.239920000000     0.461750000000     0.700640000000    -0.0377238  
C223     C      0.174070000000     0.484060000000     0.673950000000     0.0487326  
C224     C      0.295330000000     0.485200000000     0.795700000000     0.0812825  
C225     C      0.634420000000     0.485870000000     0.784500000000    -0.164627   
C226     C      0.865140000000     0.483200000000     0.653980000000     0.072107   
C227     C      0.815300000000     0.484610000000     0.604480000000     0.0705803  
C228     C      0.836370000000     0.483430000000     0.683730000000    -0.0915597  
C229     C      0.731640000000     0.509170000000     0.701450000000    -0.0380915  
C230     C      0.702430000000     0.509370000000     0.730830000000    -0.0294919  
C231     C      0.765140000000     0.484680000000     0.705050000000    -0.00439072 
C232     C      0.785760000000     0.484990000000     0.633520000000    -0.092582   
C233     C      0.705960000000     0.485000000000     0.764470000000    -0.0186661  
C234     C      0.683830000000     0.482750000000     0.835550000000    -0.11079    
C235     C      0.739590000000     0.460650000000     0.768160000000    -0.0298245  
C236     C      0.653700000000     0.482350000000     0.863950000000     0.081578   
C237     C      0.604730000000     0.485210000000     0.813470000000     0.240411   
C238     C      0.768840000000     0.460510000000     0.738810000000    -0.0382466  
C239     C      0.796120000000     0.484360000000     0.673720000000     0.0483979  
C240     C      0.674400000000     0.484590000000     0.795260000000     0.0804832  
C241     C      0.685610000000     0.633120000000     0.987570000000    -0.165682   
C242     C      0.816560000000     0.863400000000     0.984380000000     0.0712268  
C243     C      0.866230000000     0.813730000000     0.985490000000     0.0710352  
C244     C      0.786900000000     0.834570000000     0.984480000000    -0.092785   
C245     C      0.731760000000     0.767190000000     0.961730000000    -0.0382392  
C246     C      0.702280000000     0.738080000000     0.962180000000    -0.0292653  
C247     C      0.765730000000     0.763370000000     0.985590000000    -0.00575033 
C248     C      0.837260000000     0.784120000000     0.985700000000    -0.0927936  
C249     C      0.706090000000     0.704470000000     0.986510000000    -0.0204228  
C250     C      0.634830000000     0.682880000000     0.985470000000    -0.112455   
C251     C      0.740000000000     0.700750000000     0.010480000000    -0.0280587  
C252     C      0.606220000000     0.652960000000     0.985320000000     0.0798549  
C253     C      0.656410000000     0.603660000000     0.987620000000     0.241547   
C254     C      0.769490000000     0.729830000000     0.009990000000    -0.0372113  
C255     C      0.797020000000     0.794370000000     0.985200000000     0.0485631  
C256     C      0.675090000000     0.673150000000     0.986540000000     0.0810574  
C257     C      0.783590000000     0.132580000000     0.987820000000    -0.165655   
C258     C      0.654040000000     0.363790000000     0.983110000000     0.0712275  
C259     C      0.604200000000     0.314290000000     0.984630000000     0.0711815  
C260     C      0.683580000000     0.334830000000     0.983280000000    -0.0928458  
C261     C      0.738130000000     0.266760000000     0.960720000000    -0.0383152  
C262     C      0.767290000000     0.237360000000     0.961220000000    -0.0291639  
C263     C      0.704310000000     0.263480000000     0.984860000000    -0.00565855 
C264     C      0.633010000000     0.284590000000     0.984930000000    -0.0927816  
C265     C      0.763330000000     0.204020000000     0.985900000000    -0.0204902  
C266     C      0.834430000000     0.182260000000     0.984950000000    -0.112831   
C267     C      0.729560000000     0.200820000000     0.010120000000    -0.0277585  
C268     C      0.862970000000     0.152340000000     0.985110000000     0.0813851  
C269     C      0.812770000000     0.103080000000     0.988190000000     0.241999   
C270     C      0.700380000000     0.230190000000     0.009580000000    -0.0370518  
C271     C      0.673260000000     0.294670000000     0.984310000000     0.0487529  
C272     C      0.794180000000     0.172580000000     0.986230000000     0.0815274  
C273     C      0.186420000000     0.836770000000     0.987520000000    -0.165196   
C274     C      0.315990000000     0.605170000000     0.983910000000     0.0734033  
C275     C      0.365860000000     0.654640000000     0.984330000000     0.0726572  
C276     C      0.286440000000     0.634180000000     0.984120000000    -0.0898991  
C277     C      0.231510000000     0.702030000000     0.961620000000    -0.038191   
C278     C      0.202380000000     0.731490000000     0.962090000000    -0.0286575  
C279     C      0.265720000000     0.705630000000     0.985150000000    -0.00459807 
C280     C      0.337050000000     0.684380000000     0.984660000000    -0.0910004  
C281     C      0.206730000000     0.765240000000     0.986150000000    -0.0203157  
C282     C      0.135580000000     0.787070000000     0.985800000000    -0.112288   
C283     C      0.240900000000     0.768760000000     0.009780000000    -0.0274758  
C284     C      0.107020000000     0.817000000000     0.985950000000     0.0809965  
C285     C      0.157230000000     0.866280000000     0.987890000000     0.241428   
C286     C      0.270050000000     0.739330000000     0.009260000000    -0.0371336  
C287     C      0.296770000000     0.674350000000     0.984600000000     0.0487857  
C288     C      0.175860000000     0.796730000000     0.986490000000     0.0811721  
C289     C      0.333260000000     0.286210000000     0.989700000000    -0.165707   
C290     C      0.102360000000     0.156140000000     0.983900000000     0.0713662  
C291     C      0.152660000000     0.107120000000     0.985110000000     0.0712877  
C292     C      0.130890000000     0.186150000000     0.984550000000    -0.0927136  
C293     C      0.198620000000     0.241990000000     0.963210000000    -0.0381473  
C294     C      0.228040000000     0.271190000000     0.963910000000    -0.0291697  
C295     C      0.202040000000     0.207920000000     0.986950000000    -0.00564169 
C296     C      0.181910000000     0.136380000000     0.985890000000    -0.0926902  
C297     C      0.261510000000     0.266990000000     0.988410000000    -0.0204155  
C298     C      0.284390000000     0.337820000000     0.987050000000    -0.112572   
C299     C      0.264640000000     0.233120000000     0.012490000000    -0.028015   
C300     C      0.314820000000     0.365870000000     0.986880000000     0.0788616  
C301     C      0.363250000000     0.314860000000     0.989730000000     0.241289   
C302     C      0.235290000000     0.203940000000     0.011740000000    -0.0371616  
C303     C      0.171220000000     0.176460000000     0.985740000000     0.0487509  
C304     C      0.293390000000     0.297430000000     0.988420000000     0.0808754  
C305     C      0.686020000000     0.982300000000     0.633540000000    -0.164982   
C306     C      0.815030000000     0.982020000000     0.865380000000     0.0721465  
C307     C      0.864740000000     0.981540000000     0.815740000000     0.0717837  
C308     C      0.785400000000     0.982150000000     0.836450000000    -0.0915725  
C309     C      0.769360000000     0.005900000000     0.730750000000    -0.0365955  
C310     C      0.740340000000     0.006180000000     0.701200000000    -0.0279512  
C311     C      0.764550000000     0.982610000000     0.764970000000    -0.00565923 
C312     C      0.835870000000     0.981670000000     0.786090000000    -0.0927241  
C313     C      0.705810000000     0.983210000000     0.705170000000    -0.020286   
C314     C      0.634860000000     0.984060000000     0.682940000000    -0.112242   
C315     C      0.700890000000     0.960070000000     0.739470000000    -0.0296374  
C316     C      0.606510000000     0.984140000000     0.652830000000     0.0810259  
C317     C      0.657030000000     0.982070000000     0.603840000000     0.240897   
C318     C      0.729930000000     0.959760000000     0.769030000000    -0.0379667  
C319     C      0.795630000000     0.982100000000     0.796220000000     0.048896   
C320     C      0.675170000000     0.983230000000     0.673510000000     0.0809407  
C321     C      0.334050000000     0.965220000000     0.681620000000    -0.163207   
C322     C      0.152260000000     0.998810000000     0.863570000000     0.0730773  
C323     C      0.106030000000     0.973540000000     0.817190000000     0.0722386  
C324     C      0.181780000000     0.999520000000     0.834590000000    -0.0923925  
C325     C      0.245820000000     0.982290000000     0.775300000000    -0.037381   
C326     C      0.275320000000     0.982420000000     0.746270000000    -0.0296131  
C327     C      0.205460000000     0.985090000000     0.764950000000    -0.00406804 
C328     C      0.135260000000     0.972270000000     0.787940000000    -0.0918471  
C329     C      0.265520000000     0.983730000000     0.705710000000    -0.0168419  
C330     C      0.290770000000     0.000150000000     0.637160000000    -0.106288   
C331     C      0.225120000000     0.985740000000     0.695340000000    -0.0302099  
C332     C      0.320210000000     0.998650000000     0.608210000000     0.0780022  
C333     C      0.363610000000     0.965410000000     0.652490000000     0.242495   
C334     C      0.195710000000     0.987210000000     0.724420000000    -0.0375339  
C335     C      0.173840000000     0.985670000000     0.796130000000     0.0488846  
C336     C      0.297120000000     0.983060000000     0.674520000000     0.0769544  
C337     C      0.284490000000     0.989450000000     0.335830000000    -0.16581    
C338     C      0.154880000000     0.985570000000     0.104460000000     0.0703318  
C339     C      0.105290000000     0.986320000000     0.154240000000     0.0711065  
C340     C      0.184580000000     0.985990000000     0.133290000000    -0.0929745  
C341     C      0.239700000000     0.963720000000     0.201110000000    -0.0383541  
C342     C      0.268820000000     0.964160000000     0.230580000000    -0.0292735  
C343     C      0.205630000000     0.987470000000     0.204630000000    -0.00589374 
C344     C      0.134250000000     0.986860000000     0.183800000000    -0.0927011  
C345     C      0.264580000000     0.988390000000     0.264220000000    -0.0207619  
C346     C      0.335580000000     0.987500000000     0.286370000000    -0.112883   
C347     C      0.230610000000     0.012300000000     0.267600000000    -0.0279569  
C348     C      0.363970000000     0.987280000000     0.316450000000     0.079734   
C349     C      0.313510000000     0.989430000000     0.365490000000     0.241156   
C350     C      0.201480000000     0.011830000000     0.238180000000    -0.0371924  
C351     C      0.174460000000     0.986750000000     0.173530000000     0.0485062  
C352     C      0.295280000000     0.988480000000     0.295840000000     0.0809431  
C353     C      0.834390000000     0.983970000000     0.184270000000    -0.165655   
C354     C      0.653280000000     0.983440000000     0.362950000000     0.0718916  
C355     C      0.603180000000     0.984680000000     0.313690000000     0.0722649  
C356     C      0.682660000000     0.983870000000     0.333840000000    -0.092779   
C357     C      0.737400000000     0.008690000000     0.267140000000    -0.0367478  
C358     C      0.766870000000     0.008880000000     0.238070000000    -0.0281405  
C359     C      0.703110000000     0.985500000000     0.262420000000    -0.00580095 
C360     C      0.631840000000     0.985100000000     0.283830000000    -0.0917608  
C361     C      0.762740000000     0.985900000000     0.203580000000    -0.0206438  
C362     C      0.785360000000     0.986320000000     0.132770000000    -0.112879   
C363     C      0.728280000000     0.962980000000     0.198640000000    -0.0296526  
C364     C      0.815670000000     0.985910000000     0.104630000000     0.0802957  
C365     C      0.864270000000     0.983260000000     0.155520000000     0.241052   
C366     C      0.698800000000     0.962770000000     0.227750000000    -0.0380778  
C367     C      0.672140000000     0.984810000000     0.293710000000     0.0489873  
C368     C      0.794520000000     0.985470000000     0.173130000000     0.0810887  
C369     C      0.986400000000     0.283290000000     0.633130000000    -0.164846   
C370     C      0.985560000000     0.153470000000     0.864390000000     0.0715401  
C371     C      0.985810000000     0.103720000000     0.814810000000     0.0715027  
C372     C      0.986000000000     0.183060000000     0.835460000000    -0.0929776  
C373     C      0.963640000000     0.238440000000     0.768200000000    -0.0380908  
C374     C      0.963930000000     0.267670000000     0.738860000000    -0.0297296  
C375     C      0.986740000000     0.203990000000     0.764070000000    -0.00594377 
C376     C      0.986260000000     0.132590000000     0.785120000000    -0.0925966  
C377     C      0.987280000000     0.263140000000     0.704640000000    -0.0201301  
C378     C      0.987530000000     0.334220000000     0.682760000000    -0.112085   
C379     C      0.010470000000     0.228750000000     0.700550000000    -0.0280841  
C380     C      0.987280000000     0.362720000000     0.652780000000     0.0810148  
C381     C      0.985830000000     0.312410000000     0.603570000000     0.242279   
C382     C      0.010210000000     0.199540000000     0.729920000000    -0.0365202  
C383     C      0.986340000000     0.172840000000     0.795250000000     0.0488507  
C384     C      0.987160000000     0.293950000000     0.673150000000     0.0810898  
C385     C      0.983590000000     0.632650000000     0.686010000000    -0.164924   
C386     C      0.982890000000     0.863830000000     0.816090000000     0.0713463  
C387     C      0.984500000000     0.814220000000     0.865780000000     0.0713361  
C388     C      0.982400000000     0.834920000000     0.786470000000    -0.0929276  
C389     C      0.004930000000     0.768090000000     0.730590000000    -0.0369973  
C390     C      0.004640000000     0.738740000000     0.701350000000    -0.028594   
C391     C      0.982520000000     0.763550000000     0.765450000000    -0.00595655 
C392     C      0.984000000000     0.784560000000     0.836880000000    -0.0926908  
C393     C      0.981970000000     0.704130000000     0.706270000000    -0.0203386  
C394     C      0.981030000000     0.682280000000     0.635150000000    -0.112368   
C395     C      0.959470000000     0.699650000000     0.741070000000    -0.0293981  
C396     C      0.981400000000     0.652340000000     0.606610000000     0.0808383  
C397     C      0.984240000000     0.603120000000     0.656850000000     0.240971   
C398     C      0.959730000000     0.729000000000     0.770300000000    -0.0379333  
C399     C      0.982960000000     0.794710000000     0.796640000000     0.0487297  
C400     C      0.982090000000     0.672660000000     0.675420000000     0.0807464  
C401     C      0.986180000000     0.636340000000     0.286730000000    -0.164992   
C402     C      0.988050000000     0.866450000000     0.155740000000     0.0702832  
C403     C      0.988330000000     0.816090000000     0.106780000000     0.0710156  
C404     C      0.988470000000     0.838020000000     0.185800000000    -0.0929818  
C405     C      0.012460000000     0.732700000000     0.203820000000    -0.0365571  
C406     C      0.012240000000     0.703510000000     0.233180000000    -0.0280526  
C407     C      0.989110000000     0.766960000000     0.207830000000    -0.00598586 
C408     C      0.988760000000     0.786890000000     0.136120000000    -0.0929138  
C409     C      0.988680000000     0.707870000000     0.267280000000    -0.0202505  
C410     C      0.987670000000     0.685360000000     0.338240000000    -0.112358   
C411     C      0.965660000000     0.742330000000     0.271540000000    -0.0297879  
C412     C      0.986790000000     0.655040000000     0.366410000000     0.0810407  
C413     C      0.984960000000     0.606490000000     0.315470000000     0.242315   
C414     C      0.965840000000     0.771520000000     0.242140000000    -0.0381958  
C415     C      0.988810000000     0.797660000000     0.176220000000     0.0485763  
C416     C      0.987580000000     0.676180000000     0.297850000000     0.0812708  
C417     C      0.985090000000     0.336090000000     0.283820000000    -0.165458   
C418     C      0.981900000000     0.154600000000     0.104460000000     0.0717788  
C419     C      0.981740000000     0.104950000000     0.154150000000     0.0722155  
C420     C      0.981700000000     0.184230000000     0.133360000000    -0.0926209  
C421     C      0.958820000000     0.239650000000     0.200440000000    -0.0379302  
C422     C      0.959280000000     0.269060000000     0.229600000000    -0.0293571  
C423     C      0.981800000000     0.205170000000     0.204770000000    -0.00570252 
C424     C      0.981520000000     0.133830000000     0.183780000000    -0.0918048  
C425     C      0.982710000000     0.264640000000     0.263780000000    -0.0204958  
C426     C      0.983110000000     0.286530000000     0.334800000000    -0.112729   
C427     C      0.005540000000     0.230090000000     0.268210000000    -0.0284725  
C428     C      0.983960000000     0.316500000000     0.363270000000     0.07985    
C429     C      0.986260000000     0.365640000000     0.312920000000     0.23975    
C430     C      0.005120000000     0.200710000000     0.239030000000    -0.0369245  
C431     C      0.981600000000     0.174040000000     0.173600000000     0.0488429  
C432     C      0.983570000000     0.296120000000     0.294540000000     0.080769   
H1       H      0.929090000000     0.927400000000     0.042240000000     0.210055   
H2       H      0.040920000000     0.042580000000     0.041460000000     0.21143    
H3       H      0.927310000000     0.040280000000     0.928050000000     0.211471   
H4       H      0.042330000000     0.928280000000     0.928660000000     0.211344   
H5       H      0.928180000000     0.541120000000     0.428470000000     0.21157    
H6       H      0.043150000000     0.428910000000     0.427660000000     0.212425   
H7       H      0.928930000000     0.426300000000     0.540500000000     0.210901   
H8       H      0.041060000000     0.541170000000     0.542450000000     0.211113   
H9       H      0.427260000000     0.928380000000     0.428190000000     0.211536   
H10      H      0.541440000000     0.041250000000     0.427580000000     0.211503   
H11      H      0.542310000000     0.926880000000     0.540240000000     0.210056   
H12      H      0.429550000000     0.041050000000     0.542590000000     0.210513   
H13      H      0.428810000000     0.541960000000     0.041540000000     0.212931   
H14      H      0.427620000000     0.427750000000     0.928680000000     0.213124   
H15      H      0.541640000000     0.427800000000     0.041590000000     0.210277   
H16      H      0.541740000000     0.540690000000     0.927460000000     0.213029   
H17      H      0.481030000000     0.306120000000     0.075390000000     0.0240728  
H18      H      0.484840000000     0.163410000000     0.396340000000     0.0215553  
H19      H      0.436490000000     0.229730000000     0.178100000000     0.0381867  
H20      H      0.524450000000     0.243800000000     0.295120000000     0.0357252  
H21      H      0.483390000000     0.215210000000     0.347150000000     0.0565313  
H22      H      0.524900000000     0.294860000000     0.243950000000     0.0380182  
H23      H      0.478020000000     0.127160000000     0.255020000000     0.0807215  
H24      H      0.480130000000     0.255680000000     0.126350000000     0.0521839  
H25      H      0.483060000000     0.346930000000     0.215780000000     0.051817   
H26      H      0.435880000000     0.178800000000     0.229300000000     0.0359271  
H27      H      0.484540000000     0.396740000000     0.164300000000     0.0237327  
H28      H      0.448870000000     0.060870000000     0.300550000000     0.152049   
H29      H      0.485830000000     0.895630000000     0.305100000000     0.0251872  
H30      H      0.484910000000     0.574770000000     0.162710000000     0.0214603  
H31      H      0.444690000000     0.794710000000     0.225130000000     0.0383763  
H32      H      0.527570000000     0.674750000000     0.244180000000     0.0357311  
H33      H      0.484220000000     0.624500000000     0.214010000000     0.056772   
H34      H      0.527030000000     0.725990000000     0.295160000000     0.0385792  
H35      H      0.491180000000     0.715770000000     0.125210000000     0.0805036  
H36      H      0.486810000000     0.845130000000     0.254210000000     0.0523143  
H37      H      0.484050000000     0.754950000000     0.344780000000     0.0525369  
H38      H      0.445440000000     0.743590000000     0.174110000000     0.0376641  
H39      H      0.483940000000     0.805940000000     0.395000000000     0.0254397  
H40      H      0.521460000000     0.669820000000     0.059940000000     0.152239   
H41      H      0.483480000000     0.573390000000     0.805350000000     0.0308426  
H42      H      0.483470000000     0.893960000000     0.662430000000     0.0274621  
H43      H      0.440840000000     0.742250000000     0.793570000000     0.0391546  
H44      H      0.527520000000     0.725810000000     0.675940000000     0.0356457  
H45      H      0.483540000000     0.844360000000     0.713780000000     0.0576049  
H46      H      0.526930000000     0.674760000000     0.727010000000     0.0392947  
H47      H      0.485190000000     0.752850000000     0.624930000000     0.0804927  
H48      H      0.483110000000     0.623850000000     0.754400000000     0.0542468  
H49      H      0.483770000000     0.714130000000     0.844850000000     0.052584   
H50      H      0.441280000000     0.793300000000     0.742370000000     0.0364683  
H51      H      0.483530000000     0.663170000000     0.895190000000     0.0255541  
H52      H      0.515400000000     0.797810000000     0.558760000000     0.148884   
H53      H      0.485860000000     0.162480000000     0.575790000000     0.0237401  
H54      H      0.489550000000     0.305760000000     0.896460000000     0.0265965  
H55      H      0.527780000000     0.242160000000     0.676290000000     0.0383862  
H56      H      0.447630000000     0.221670000000     0.797880000000     0.0372651  
H57      H      0.490940000000     0.253830000000     0.847350000000     0.0583759  
H58      H      0.448310000000     0.170550000000     0.746750000000     0.0391794  
H59      H      0.479770000000     0.341140000000     0.755100000000     0.0803829  
H60      H      0.485620000000     0.212820000000     0.626740000000     0.0518285  
H61      H      0.490370000000     0.121470000000     0.716050000000     0.0533135  
H62      H      0.526770000000     0.293310000000     0.727230000000     0.0359519  
H63      H      0.489650000000     0.071710000000     0.664520000000     0.0274142  
H64      H      0.504880000000     0.410770000000     0.796730000000     0.149436   
H65      H      0.664710000000     0.072940000000     0.483730000000     0.0297301  
H66      H      0.808000000000     0.393340000000     0.483500000000     0.022867   
H67      H      0.742800000000     0.174280000000     0.439590000000     0.038615   
H68      H      0.729010000000     0.292520000000     0.525860000000     0.0358075  
H69      H      0.756770000000     0.343640000000     0.483200000000     0.0568352  
H70      H      0.677750000000     0.241590000000     0.526950000000     0.0385651  
H71      H      0.845810000000     0.252340000000     0.479870000000     0.0805236  
H72      H      0.715840000000     0.123220000000     0.483330000000     0.0538321  
H73      H      0.625680000000     0.213800000000     0.485080000000     0.051795   
H74      H      0.793990000000     0.225240000000     0.438380000000     0.036166   
H75      H      0.575170000000     0.163000000000     0.486090000000     0.023846   
H76      H      0.911740000000     0.298000000000     0.449770000000     0.153128   
H77      H      0.573630000000     0.805010000000     0.483310000000     0.0239884  
H78      H      0.894190000000     0.661740000000     0.485500000000     0.0213463  
H79      H      0.674660000000     0.726850000000     0.527800000000     0.0377862  
H80      H      0.793710000000     0.740880000000     0.442600000000     0.0355544  
H81      H      0.844490000000     0.712950000000     0.485540000000     0.0564322  
H82      H      0.742770000000     0.792130000000     0.441230000000     0.0384432  
H83      H      0.753110000000     0.623970000000     0.487980000000     0.0804285  
H84      H      0.623950000000     0.753930000000     0.483830000000     0.0520122  
H85      H      0.714540000000     0.844100000000     0.482890000000     0.0518017  
H86      H      0.725620000000     0.675660000000     0.529280000000     0.0357598  
H87      H      0.663690000000     0.894570000000     0.481750000000     0.0241543  
H88      H      0.798620000000     0.558050000000     0.518370000000     0.152027   
H89      H      0.396650000000     0.164050000000     0.486250000000     0.023745   
H90      H      0.076240000000     0.307160000000     0.483810000000     0.0285843  
H91      H      0.294860000000     0.241970000000     0.529830000000     0.0384963  
H92      H      0.177430000000     0.228060000000     0.442390000000     0.036026   
H93      H      0.125910000000     0.255930000000     0.484440000000     0.0587444  
H94      H      0.228360000000     0.176770000000     0.441960000000     0.0381337  
H95      H      0.217290000000     0.344860000000     0.488540000000     0.0809206  
H96      H      0.346280000000     0.215080000000     0.486250000000     0.0521791  
H97      H      0.255790000000     0.124830000000     0.484510000000     0.052036   
H98      H      0.243890000000     0.293160000000     0.530410000000     0.0363857  
H99      H      0.306690000000     0.074400000000     0.483920000000     0.0239839  
H100     H      0.171480000000     0.410750000000     0.518360000000     0.153605   
H101     H      0.394040000000     0.806280000000     0.485510000000     0.0295745  
H102     H      0.072850000000     0.663970000000     0.488440000000     0.0216648  
H103     H      0.223460000000     0.798140000000     0.447630000000     0.0392826  
H104     H      0.241760000000     0.676720000000     0.528420000000     0.0381966  
H105     H      0.122040000000     0.715850000000     0.489970000000     0.0567404  
H106     H      0.292950000000     0.727650000000     0.528890000000     0.0398943  
H107     H      0.214360000000     0.628180000000     0.482430000000     0.081038   
H108     H      0.342910000000     0.756050000000     0.485810000000     0.0537463  
H109     H      0.253850000000     0.847660000000     0.489930000000     0.0535215  
H110     H      0.172150000000     0.747200000000     0.447310000000     0.036064   
H111     H      0.305500000000     0.897280000000     0.488780000000     0.0294737  
H112     H      0.169360000000     0.562810000000     0.451210000000     0.153681   
H113     H      0.664560000000     0.485160000000     0.073450000000     0.0241209  
H114     H      0.807410000000     0.484830000000     0.394460000000     0.0270179  
H115     H      0.675020000000     0.444160000000     0.243040000000     0.0379426  
H116     H      0.795530000000     0.526570000000     0.225640000000     0.0378028  
H117     H      0.756110000000     0.485920000000     0.344760000000     0.0581541  
H118     H      0.744450000000     0.527140000000     0.174530000000     0.0383152  
H119     H      0.845000000000     0.482080000000     0.253340000000     0.0813855  
H120     H      0.715530000000     0.484830000000     0.123930000000     0.052164   
H121     H      0.625020000000     0.487040000000     0.214210000000     0.0516749  
H122     H      0.726100000000     0.443650000000     0.294180000000     0.0358934  
H123     H      0.574720000000     0.486580000000     0.163240000000     0.0237254  
H124     H      0.910760000000     0.451970000000     0.298560000000     0.165499   
H125     H      0.075790000000     0.486230000000     0.306470000000     0.0309096  
H126     H      0.396550000000     0.486580000000     0.163730000000     0.0215535  
H127     H      0.177990000000     0.441540000000     0.230360000000     0.0390342  
H128     H      0.295750000000     0.528620000000     0.243650000000     0.0362769  
H129     H      0.347320000000     0.486350000000     0.215530000000     0.0568655  
H130     H      0.244590000000     0.529900000000     0.294780000000     0.0390953  
H131     H      0.255130000000     0.481910000000     0.127440000000     0.0816253  
H132     H      0.126680000000     0.485930000000     0.255970000000     0.0544755  
H133     H      0.216250000000     0.488360000000     0.347150000000     0.0538686  
H134     H      0.229120000000     0.440120000000     0.179390000000     0.0364027  
H135     H      0.164810000000     0.489270000000     0.397060000000     0.0294763  
H136     H      0.300180000000     0.451530000000     0.061360000000     0.152898   
H137     H      0.074170000000     0.482630000000     0.664130000000     0.0244063  
H138     H      0.394830000000     0.486880000000     0.806930000000     0.0287258  
H139     H      0.244090000000     0.443040000000     0.674900000000     0.0387906  
H140     H      0.225800000000     0.526870000000     0.794280000000     0.038221   
H141     H      0.345240000000     0.487360000000     0.755530000000     0.0592142  
H142     H      0.174740000000     0.526280000000     0.743170000000     0.0386365  
H143     H      0.253630000000     0.482700000000     0.844190000000     0.080743   
H144     H      0.124700000000     0.482640000000     0.715000000000     0.0524653  
H145     H      0.214900000000     0.485320000000     0.624420000000     0.0538016  
H146     H      0.295220000000     0.443710000000     0.726010000000     0.0370545  
H147     H      0.163870000000     0.484490000000     0.574170000000     0.0292587  
H148     H      0.298870000000     0.453260000000     0.910140000000     0.150828   
H149     H      0.805790000000     0.485030000000     0.573780000000     0.023782   
H150     H      0.662870000000     0.481060000000     0.894720000000     0.0267776  
H151     H      0.794030000000     0.440910000000     0.742220000000     0.0381269  
H152     H      0.677250000000     0.528980000000     0.727360000000     0.03768    
H153     H      0.714420000000     0.482160000000     0.845290000000     0.0581646  
H154     H      0.728220000000     0.528620000000     0.676150000000     0.038518   
H155     H      0.625890000000     0.486750000000     0.753540000000     0.0797593  
H156     H      0.754970000000     0.485260000000     0.624440000000     0.0518617  
H157     H      0.845730000000     0.483430000000     0.714440000000     0.0535573  
H158     H      0.742960000000     0.441090000000     0.793380000000     0.0355399  
H159     H      0.895880000000     0.482630000000     0.663310000000     0.0294213  
H160     H      0.558340000000     0.458780000000     0.796400000000     0.148405   
H161     H      0.896960000000     0.804330000000     0.985800000000     0.0235578  
H162     H      0.575480000000     0.662330000000     0.984440000000     0.0219049  
H163     H      0.794970000000     0.726310000000     0.029210000000     0.0382697  
H164     H      0.676840000000     0.741570000000     0.942920000000     0.0360345  
H165     H      0.625310000000     0.713530000000     0.985170000000     0.0566237  
H166     H      0.728220000000     0.792400000000     0.942190000000     0.0384904  
H167     H      0.716520000000     0.624390000000     0.987930000000     0.0804683  
H168     H      0.846420000000     0.753360000000     0.985780000000     0.051875   
H169     H      0.756150000000     0.843850000000     0.984580000000     0.0520491  
H170     H      0.743570000000     0.675560000000     0.030050000000     0.0358159  
H171     H      0.807120000000     0.894100000000     0.983980000000     0.0251512  
H172     H      0.670850000000     0.558390000000     0.017520000000     0.152863   
H173     H      0.573440000000     0.304980000000     0.985080000000     0.0250135  
H174     H      0.893700000000     0.161700000000     0.984000000000     0.0213271  
H175     H      0.675000000000     0.227100000000     0.029000000000     0.0388272  
H176     H      0.792640000000     0.240440000000     0.941760000000     0.035494   
H177     H      0.844000000000     0.212890000000     0.984250000000     0.0564859  
H178     H      0.741760000000     0.291770000000     0.940940000000     0.0382099  
H179     H      0.752670000000     0.123900000000     0.988410000000     0.0807648  
H180     H      0.623720000000     0.253870000000     0.985200000000     0.0525545  
H181     H      0.714370000000     0.343950000000     0.983220000000     0.052145   
H182     H      0.725910000000     0.175850000000     0.029960000000     0.0364251  
H183     H      0.663550000000     0.394470000000     0.982520000000     0.0249607  
H184     H      0.798480000000     0.058200000000     0.018720000000     0.15372    
H185     H      0.396620000000     0.663940000000     0.984330000000     0.0291148  
H186     H      0.076290000000     0.807620000000     0.985310000000     0.0218026  
H187     H      0.295730000000     0.742720000000     0.028230000000     0.039494   
H188     H      0.176730000000     0.728120000000     0.943080000000     0.0362142  
H189     H      0.125990000000     0.756440000000     0.985560000000     0.0569965  
H190     H      0.227530000000     0.676720000000     0.942290000000     0.039846   
H191     H      0.217350000000     0.845460000000     0.987650000000     0.080375   
H192     H      0.346390000000     0.715090000000     0.984500000000     0.0532879  
H193     H      0.255650000000     0.625070000000     0.984520000000     0.0551507  
H194     H      0.244900000000     0.794030000000     0.029160000000     0.0360934  
H195     H      0.306450000000     0.574500000000     0.983740000000     0.03487    
H196     H      0.171840000000     0.911500000000     0.017760000000     0.153039   
H197     H      0.162480000000     0.076530000000     0.985250000000     0.0252443  
H198     H      0.306000000000     0.396740000000     0.985720000000     0.0219923  
H199     H      0.238460000000     0.178400000000     0.030930000000     0.038501   
H200     H      0.224960000000     0.296640000000     0.944610000000     0.0360706  
H201     H      0.253900000000     0.347880000000     0.986530000000     0.0567625  
H202     H      0.173600000000     0.245730000000     0.943440000000     0.0387192  
H203     H      0.341450000000     0.255170000000     0.990290000000     0.0804196  
H204     H      0.212780000000     0.127540000000     0.986210000000     0.0524504  
H205     H      0.121290000000     0.216780000000     0.984770000000     0.0520574  
H206     H      0.289650000000     0.229300000000     0.032250000000     0.0357848  
H207     H      0.071520000000     0.165160000000     0.983250000000     0.0240924  
H208     H      0.408120000000     0.299910000000     0.019980000000     0.15279    
H209     H      0.895460000000     0.981170000000     0.806330000000     0.0238376  
H210     H      0.575720000000     0.985120000000     0.662020000000     0.0231692  
H211     H      0.725560000000     0.941060000000     0.794750000000     0.038378   
H212     H      0.744750000000     0.024830000000     0.675440000000     0.0382845  
H213     H      0.625130000000     0.985250000000     0.713510000000     0.0573925  
H214     H      0.795340000000     0.024380000000     0.727000000000     0.0388993  
H215     H      0.717000000000     0.981010000000     0.625110000000     0.0799586  
H216     H      0.845150000000     0.981000000000     0.755360000000     0.0518839  
H217     H      0.754640000000     0.982920000000     0.845650000000     0.0534178  
H218     H      0.674880000000     0.941620000000     0.743180000000     0.0355004  
H219     H      0.805600000000     0.982310000000     0.896100000000     0.0290718  
H220     H      0.671830000000     0.952020000000     0.558790000000     0.149338   
H221     H      0.076760000000     0.962780000000     0.809380000000     0.0230033  
H222     H      0.313780000000     0.012590000000     0.579950000000     0.0227182  
H223     H      0.165310000000     0.990280000000     0.714720000000     0.0370422  
H224     H      0.305850000000     0.981760000000     0.756020000000     0.0367385  
H225     H      0.263460000000     0.015390000000     0.630080000000     0.0558535  
H226     H      0.255040000000     0.979680000000     0.805890000000     0.0381805  
H227     H      0.340210000000     0.950280000000     0.709320000000     0.0794841  
H228     H      0.127400000000     0.960140000000     0.759340000000     0.0513773  
H229     H      0.210450000000     0.011430000000     0.842570000000     0.0542373  
H230     H      0.215770000000     0.985920000000     0.664680000000     0.0347988  
H231     H      0.159920000000     0.009720000000     0.892820000000     0.0285815  
H232     H      0.395280000000     0.919020000000     0.652390000000     0.152947   
H233     H      0.074590000000     0.986360000000     0.163720000000     0.0253297  
H234     H      0.394750000000     0.986450000000     0.307220000000     0.0215946  
H235     H      0.175910000000     0.030960000000     0.241460000000     0.0382642  
H236     H      0.294330000000     0.944950000000     0.227330000000     0.0357394  
H237     H      0.345310000000     0.987310000000     0.255770000000     0.0563983  
H238     H      0.243530000000     0.944230000000     0.175910000000     0.0382174  
H239     H      0.253520000000     0.989800000000     0.344350000000     0.0801553  
H240     H      0.125090000000     0.986890000000     0.214570000000     0.0523154  
H241     H      0.215330000000     0.986300000000     0.124020000000     0.0517709  
H242     H      0.226730000000     0.031810000000     0.292800000000     0.0355849  
H243     H      0.164230000000     0.985150000000     0.073720000000     0.0240483  
H244     H      0.298900000000     0.019160000000     0.410810000000     0.153004   
H245     H      0.572370000000     0.985160000000     0.304550000000     0.0290562  
H246     H      0.806730000000     0.987000000000     0.073780000000     0.0217901  
H247     H      0.672990000000     0.944180000000     0.223440000000     0.038579   
H248     H      0.792750000000     0.027360000000     0.242450000000     0.0379049  
H249     H      0.754860000000     0.987900000000     0.122840000000     0.0569345  
H250     H      0.741310000000     0.027080000000     0.293160000000     0.0386717  
H251     H      0.842590000000     0.982590000000     0.215300000000     0.0798567  
H252     H      0.622380000000     0.986260000000     0.253170000000     0.0535128  
H253     H      0.713480000000     0.983000000000     0.342820000000     0.0520713  
H254     H      0.724450000000     0.944550000000     0.172640000000     0.0355948  
H255     H      0.662970000000     0.982660000000     0.393580000000     0.0249927  
H256     H      0.908740000000     0.952500000000     0.170640000000     0.149237   
H257     H      0.985620000000     0.072990000000     0.805460000000     0.0243474  
H258     H      0.987880000000     0.393460000000     0.662090000000     0.0229024  
H259     H      0.028860000000     0.173690000000     0.726090000000     0.0390695  
H260     H      0.945270000000     0.293520000000     0.742640000000     0.0353206  
H261     H      0.988570000000     0.343820000000     0.713380000000     0.0569748  
H262     H      0.944760000000     0.242540000000     0.793840000000     0.0377459  
H263     H      0.985460000000     0.252370000000     0.624550000000     0.0813666  
H264     H      0.986000000000     0.123310000000     0.754390000000     0.0521573  
H265     H      0.986600000000     0.213790000000     0.844670000000     0.051721   
H266     H      0.029250000000     0.224630000000     0.674850000000     0.0384159  
H267     H      0.985440000000     0.162960000000     0.895090000000     0.0236356  
H268     H      0.955980000000     0.297380000000     0.558450000000     0.161055   
H269     H      0.985440000000     0.804840000000     0.896500000000     0.0236925  
H270     H      0.980260000000     0.661670000000     0.575880000000     0.0214664  
H271     H      0.941620000000     0.724850000000     0.796490000000     0.0387093  
H272     H      0.022780000000     0.742860000000     0.675180000000     0.0355035  
H273     H      0.979390000000     0.712880000000     0.625590000000     0.0564098  
H274     H      0.023280000000     0.794040000000     0.726170000000     0.0380425  
H275     H      0.985050000000     0.624040000000     0.716920000000     0.0800046  
H276     H      0.984980000000     0.753840000000     0.846120000000     0.0519124  
H277     H      0.981060000000     0.844150000000     0.755750000000     0.0516012  
H278     H      0.941200000000     0.673630000000     0.745520000000     0.0378917  
H279     H      0.982300000000     0.894530000000     0.806640000000     0.0236809  
H280     H      0.014950000000     0.558460000000     0.671460000000     0.150874   
H281     H      0.988150000000     0.806240000000     0.076200000000     0.0238308  
H282     H      0.987320000000     0.663940000000     0.397280000000     0.0213714  
H283     H      0.947100000000     0.797300000000     0.245920000000     0.037603   
H284     H      0.030820000000     0.677620000000     0.229300000000     0.0387838  
H285     H      0.989050000000     0.715860000000     0.348160000000     0.05642    
H286     H      0.031270000000     0.728580000000     0.178130000000     0.0392013  
H287     H      0.985300000000     0.628120000000     0.255690000000     0.0817963  
H288     H      0.988480000000     0.756030000000     0.127330000000     0.052033   
H289     H      0.989020000000     0.847710000000     0.216400000000     0.0518887  
H290     H      0.946790000000     0.746340000000     0.297200000000     0.0351754  
H291     H      0.987870000000     0.897290000000     0.164730000000     0.024209   
H292     H      0.954360000000     0.562100000000     0.299820000000     0.161537   
H293     H      0.981610000000     0.074250000000     0.163590000000     0.0296914  
H294     H      0.983170000000     0.307220000000     0.394030000000     0.0226544  
H295     H      0.023640000000     0.174800000000     0.243010000000     0.0382666  
H296     H      0.940890000000     0.295060000000     0.225590000000     0.0376814  
H297     H      0.981510000000     0.255940000000     0.344420000000     0.0568621  
H298     H      0.940040000000     0.243730000000     0.174730000000     0.038832   
H299     H      0.986140000000     0.344620000000     0.252870000000     0.0803685  
H300     H      0.980850000000     0.124590000000     0.214520000000     0.0532917  
H301     H      0.982260000000     0.214960000000     0.124120000000     0.0521161  
H302     H      0.024340000000     0.226050000000     0.293920000000     0.0356799  
H303     H      0.982200000000     0.164010000000     0.073740000000     0.0239918  
H304     H      0.016990000000     0.410170000000     0.297940000000     0.153547   
N1       N      0.481830000000     0.115080000000     0.354750000000    -0.21899    
N2       N      0.482930000000     0.355350000000     0.115820000000    -0.192253   
N3       N      0.487970000000     0.615930000000     0.114000000000    -0.219393   
N4       N      0.484850000000     0.854770000000     0.353990000000    -0.192308   
N5       N      0.484950000000     0.852730000000     0.613700000000    -0.218872   
N6       N      0.483580000000     0.614300000000     0.854230000000    -0.191494   
N7       N      0.484540000000     0.353830000000     0.854750000000    -0.218204   
N8       N      0.487690000000     0.113170000000     0.616130000000    -0.191739   
N9       N      0.856840000000     0.352240000000     0.481480000000    -0.219136   
N10      N      0.615960000000     0.114000000000     0.484880000000    -0.191692   
N11      N      0.853070000000     0.612920000000     0.487070000000    -0.21907    
N12      N      0.614690000000     0.853760000000     0.482530000000    -0.192206   
N13      N      0.117370000000     0.355950000000     0.486240000000    -0.218423   
N14      N      0.355640000000     0.115270000000     0.485140000000    -0.192624   
N15      N      0.114600000000     0.615800000000     0.485020000000    -0.219067   
N16      N      0.353800000000     0.855690000000     0.487040000000    -0.191166   
N17      N      0.856180000000     0.483260000000     0.353280000000    -0.218208   
N18      N      0.615680000000     0.485750000000     0.114360000000    -0.192168   
N19      N      0.354920000000     0.483920000000     0.115390000000    -0.219226   
N20      N      0.116300000000     0.487610000000     0.355690000000    -0.19112    
N21      N      0.353520000000     0.484830000000     0.855590000000    -0.218344   
N22      N      0.115050000000     0.483600000000     0.615210000000    -0.191915   
N23      N      0.614280000000     0.483600000000     0.853370000000    -0.218249   
N24      N      0.854780000000     0.483740000000     0.614550000000    -0.191689   
N25      N      0.616570000000     0.613490000000     0.986150000000    -0.219217   
N26      N      0.856030000000     0.853170000000     0.984920000000    -0.192301   
N27      N      0.852600000000     0.112890000000     0.986470000000    -0.219441   
N28      N      0.614550000000     0.353700000000     0.983860000000    -0.19249    
N29      N      0.117380000000     0.856480000000     0.986740000000    -0.218982   
N30      N      0.355500000000     0.615230000000     0.984080000000    -0.190324   
N31      N      0.354130000000     0.354830000000     0.987940000000    -0.219182   
N32      N      0.113080000000     0.116820000000     0.984310000000    -0.192162   
N33      N      0.617130000000     0.983280000000     0.613410000000    -0.219095   
N34      N      0.854500000000     0.981850000000     0.855190000000    -0.19186    
N35      N      0.356620000000     0.982150000000     0.615860000000    -0.220648   
N36      N      0.114560000000     0.986210000000     0.854890000000    -0.192604   
N37      N      0.353390000000     0.987940000000     0.355880000000    -0.219385   
N38      N      0.115430000000     0.985800000000     0.114760000000    -0.192241   
N39      N      0.854990000000     0.984550000000     0.115560000000    -0.219407   
N40      N      0.613750000000     0.983950000000     0.353060000000    -0.191965   
N41      N      0.986530000000     0.352270000000     0.613310000000    -0.218732   
N42      N      0.985450000000     0.114000000000     0.854250000000    -0.19226    
N43      N      0.982930000000     0.612890000000     0.616990000000    -0.218953   
N44      N      0.983960000000     0.853660000000     0.855550000000    -0.192266   
N45      N      0.985690000000     0.615730000000     0.355470000000    -0.218849   
N46      N      0.987930000000     0.855670000000     0.116420000000    -0.19244    
N47      N      0.985370000000     0.355930000000     0.352790000000    -0.219282   
N48      N      0.982050000000     0.115170000000     0.114690000000    -0.191868   
O1       O      0.982700000000     0.097310000000     0.049110000000    -0.375334   
O2       O      0.987180000000     0.872610000000     0.050550000000    -0.375566   
O3       O      0.920670000000     0.984900000000     0.097270000000    -0.364346   
O4       O      0.049780000000     0.985500000000     0.097170000000    -0.375125   
O5       O      0.097520000000     0.985770000000     0.049220000000    -0.375227   
O6       O      0.872700000000     0.984060000000     0.049800000000    -0.377058   
O7       O      0.986680000000     0.920950000000     0.097890000000    -0.37649    
O8       O      0.983430000000     0.049610000000     0.097080000000    -0.37211    
O9       O      0.025660000000     0.945310000000     0.025180000000    -0.506717   
O10      O      0.944340000000     0.024400000000     0.025030000000    -0.506829   
O11      O      0.945380000000     0.944000000000     0.025560000000    -0.65274    
O12      O      0.024620000000     0.025770000000     0.025000000000    -0.652419   
O13      O      0.985350000000     0.871600000000     0.921140000000    -0.375898   
O14      O      0.984320000000     0.096520000000     0.919870000000    -0.376716   
O15      O      0.873470000000     0.918730000000     0.984870000000    -0.376556   
O16      O      0.098120000000     0.921900000000     0.985580000000    -0.363965   
O17      O      0.096220000000     0.051000000000     0.984570000000    -0.374327   
O18      O      0.871790000000     0.047490000000     0.985910000000    -0.363812   
O19      O      0.920100000000     0.982650000000     0.872870000000    -0.37657    
O20      O      0.049160000000     0.983150000000     0.872580000000    -0.37723    
O21      O      0.872320000000     0.982440000000     0.920790000000    -0.372287   
O22      O      0.096920000000     0.988470000000     0.920300000000    -0.372684   
O23      O      0.921660000000     0.871230000000     0.985350000000    -0.375353   
O24      O      0.918610000000     0.096080000000     0.985370000000    -0.378619   
O25      O      0.047710000000     0.098160000000     0.984060000000    -0.37562    
O26      O      0.051320000000     0.873250000000     0.986280000000    -0.377336   
O27      O      0.984060000000     0.919260000000     0.873140000000    -0.375527   
O28      O      0.985220000000     0.048430000000     0.872270000000    -0.375131   
O29      O      0.024200000000     0.025090000000     0.944590000000    -0.506104   
O30      O      0.945310000000     0.943590000000     0.945340000000    -0.507542   
O31      O      0.944070000000     0.024070000000     0.944640000000    -0.652805   
O32      O      0.025590000000     0.944660000000     0.945090000000    -0.651617   
O33      O      0.986060000000     0.372870000000     0.418760000000    -0.377129   
O34      O      0.984870000000     0.597710000000     0.421260000000    -0.377345   
O35      O      0.921650000000     0.484370000000     0.372230000000    -0.360092   
O36      O      0.050540000000     0.486700000000     0.372930000000    -0.369765   
O37      O      0.098050000000     0.486960000000     0.421090000000    -0.371951   
O38      O      0.873290000000     0.483180000000     0.419310000000    -0.373182   
O39      O      0.985900000000     0.550070000000     0.373480000000    -0.360989   
O40      O      0.985640000000     0.421360000000     0.371850000000    -0.363223   
O41      O      0.025110000000     0.525640000000     0.445460000000    -0.509473   
O42      O      0.945910000000     0.444290000000     0.444040000000    -0.511065   
O43      O      0.944810000000     0.524670000000     0.444950000000    -0.653967   
O44      O      0.026340000000     0.445040000000     0.444280000000    -0.658493   
O45      O      0.983290000000     0.596040000000     0.550950000000    -0.378102   
O46      O      0.986690000000     0.371330000000     0.547850000000    -0.361105   
O47      O      0.872200000000     0.547500000000     0.485670000000    -0.363949   
O48      O      0.096600000000     0.550140000000     0.485140000000    -0.363731   
O49      O      0.098250000000     0.421370000000     0.485730000000    -0.363293   
O50      O      0.873740000000     0.418240000000     0.482840000000    -0.377324   
O51      O      0.920320000000     0.483300000000     0.596780000000    -0.372832   
O52      O      0.049410000000     0.483170000000     0.597430000000    -0.374694   
O53      O      0.872530000000     0.483440000000     0.548870000000    -0.374664   
O54      O      0.097340000000     0.484540000000     0.549690000000    -0.372651   
O55      O      0.919110000000     0.596040000000     0.486570000000    -0.37784    
O56      O      0.922280000000     0.371350000000     0.482430000000    -0.36394    
O57      O      0.051370000000     0.372840000000     0.484780000000    -0.372592   
O58      O      0.048790000000     0.597770000000     0.485520000000    -0.37633    
O59      O      0.983680000000     0.547460000000     0.597810000000    -0.36407    
O60      O      0.985900000000     0.418270000000     0.596330000000    -0.376893   
O61      O      0.025720000000     0.444210000000     0.524650000000    -0.509948   
O62      O      0.944620000000     0.523440000000     0.525000000000    -0.506736   
O63      O      0.945350000000     0.443180000000     0.524250000000    -0.654678   
O64      O      0.024740000000     0.524710000000     0.525670000000    -0.653556   
O65      O      0.596670000000     0.983670000000     0.418790000000    -0.376151   
O66      O      0.372290000000     0.986590000000     0.421400000000    -0.364404   
O67      O      0.484440000000     0.920370000000     0.371850000000    -0.37521    
O68      O      0.483050000000     0.049450000000     0.372940000000    -0.363509   
O69      O      0.483940000000     0.097250000000     0.420580000000    -0.376608   
O70      O      0.484580000000     0.872390000000     0.419530000000    -0.376952   
O71      O      0.419310000000     0.986280000000     0.372990000000    -0.378034   
O72      O      0.548330000000     0.984400000000     0.371450000000    -0.37308    
O73      O      0.444980000000     0.025080000000     0.445240000000    -0.508869   
O74      O      0.524610000000     0.944320000000     0.443840000000    -0.509247   
O75      O      0.444130000000     0.944670000000     0.444610000000    -0.655535   
O76      O      0.525060000000     0.024710000000     0.444210000000    -0.652773   
O77      O      0.373700000000     0.985860000000     0.550380000000    -0.379671   
O78      O      0.598230000000     0.983920000000     0.547860000000    -0.36429    
O79      O      0.419670000000     0.872660000000     0.485460000000    -0.371024   
O80      O      0.421220000000     0.097340000000     0.485430000000    -0.3767     
O81      O      0.550310000000     0.096550000000     0.485260000000    -0.377087   
O82      O      0.549110000000     0.871740000000     0.483030000000    -0.374866   
O83      O      0.485790000000     0.918680000000     0.596600000000    -0.373491   
O84      O      0.487080000000     0.047790000000     0.597680000000    -0.373887   
O85      O      0.484510000000     0.871650000000     0.548250000000    -0.364962   
O86      O      0.486820000000     0.096120000000     0.550290000000    -0.375156   
O87      O      0.372330000000     0.921000000000     0.486630000000    -0.372772   
O88      O      0.597170000000     0.919390000000     0.482600000000    -0.375285   
O89      O      0.597910000000     0.048470000000     0.484350000000    -0.37118    
O90      O      0.373210000000     0.049700000000     0.485130000000    -0.375432   
O91      O      0.421990000000     0.980740000000     0.597520000000    -0.36263    
O92      O      0.551200000000     0.983480000000     0.596260000000    -0.377952   
O93      O      0.525880000000     0.024000000000     0.524590000000    -0.506555   
O94      O      0.445270000000     0.944310000000     0.524860000000    -0.509264   
O95      O      0.525680000000     0.943620000000     0.524050000000    -0.655296   
O96      O      0.445820000000     0.024600000000     0.525740000000    -0.652681   
O97      O      0.419900000000     0.372740000000     0.986520000000    -0.364259   
O98      O      0.421070000000     0.597200000000     0.984150000000    -0.371268   
O99      O      0.373170000000     0.484440000000     0.049770000000    -0.363928   
O100     O      0.372370000000     0.485050000000     0.921070000000    -0.364035   
O101     O      0.419490000000     0.484810000000     0.872760000000    -0.372431   
O102     O      0.420760000000     0.484730000000     0.097610000000    -0.378014   
O103     O      0.372990000000     0.549570000000     0.984460000000    -0.367424   
O104     O      0.372230000000     0.420510000000     0.986610000000    -0.376103   
O105     O      0.444800000000     0.524760000000     0.944730000000    -0.510007   
O106     O      0.445050000000     0.444860000000     0.025270000000    -0.508973   
O107     O      0.445180000000     0.525280000000     0.025030000000    -0.654464   
O108     O      0.444350000000     0.444270000000     0.944980000000    -0.656415   
O109     O      0.550520000000     0.596470000000     0.985020000000    -0.376531   
O110     O      0.549010000000     0.371700000000     0.984570000000    -0.37698    
O111     O      0.486640000000     0.549970000000     0.096850000000    -0.378104   
O112     O      0.483740000000     0.548710000000     0.872070000000    -0.370424   
O113     O      0.484220000000     0.419560000000     0.872850000000    -0.364812   
O114     O      0.484350000000     0.420730000000     0.097520000000    -0.376532   
O115     O      0.597750000000     0.484800000000     0.048730000000    -0.373675   
O116     O      0.596950000000     0.483310000000     0.919320000000    -0.373009   
O117     O      0.550060000000     0.485550000000     0.096760000000    -0.37668    
O118     O      0.548690000000     0.483780000000     0.872110000000    -0.364334   
O119     O      0.486880000000     0.597090000000     0.048560000000    -0.364487   
O120     O      0.483680000000     0.372540000000     0.050010000000    -0.373886   
O121     O      0.484790000000     0.371780000000     0.920530000000    -0.372873   
O122     O      0.484600000000     0.596660000000     0.919790000000    -0.376094   
O123     O      0.597570000000     0.548110000000     0.985050000000    -0.364972   
O124     O      0.597050000000     0.419310000000     0.983740000000    -0.377214   
O125     O      0.524580000000     0.443990000000     0.944460000000    -0.509985   
O126     O      0.525520000000     0.524470000000     0.024380000000    -0.508323   
O127     O      0.525130000000     0.444320000000     0.025050000000    -0.652294   
O128     O      0.525210000000     0.524290000000     0.944100000000    -0.655517   
O129     O      0.477570000000     0.067210000000     0.301830000000    -0.29751    
O130     O      0.492640000000     0.668360000000     0.065640000000    -0.297735   
O131     O      0.486820000000     0.800150000000     0.565320000000    -0.296414   
O132     O      0.477540000000     0.401240000000     0.801740000000    -0.296634   
O133     O      0.905340000000     0.299830000000     0.478420000000    -0.298957   
O134     O      0.800610000000     0.564450000000     0.489740000000    -0.298206   
O135     O      0.169810000000     0.404390000000     0.489690000000    -0.296321   
O136     O      0.167660000000     0.568140000000     0.480080000000    -0.296387   
O137     O      0.904600000000     0.480640000000     0.300750000000    -0.296852   
O138     O      0.301960000000     0.480230000000     0.067500000000    -0.295478   
O139     O      0.300890000000     0.481920000000     0.903900000000    -0.294892   
O140     O      0.566130000000     0.486780000000     0.800630000000    -0.296594   
O141     O      0.669010000000     0.564970000000     0.988910000000    -0.298702   
O142     O      0.800200000000     0.064410000000     0.990020000000    -0.29876    
O143     O      0.169800000000     0.904980000000     0.989160000000    -0.298601   
O144     O      0.401730000000     0.301620000000     0.991330000000    -0.298832   
O145     O      0.669840000000     0.980640000000     0.565210000000    -0.296704   
O146     O      0.398890000000     0.946910000000     0.660980000000    -0.297743   
O147     O      0.300740000000     0.990590000000     0.404140000000    -0.299193   
O148     O      0.902780000000     0.981220000000     0.168610000000    -0.297112   
O149     O      0.984580000000     0.299740000000     0.564900000000    -0.295412   
O150     O      0.986220000000     0.564470000000     0.669450000000    -0.297756   
O151     O      0.983070000000     0.568020000000     0.302290000000    -0.293438   
O152     O      0.988270000000     0.404270000000     0.300240000000    -0.297777   
Zr1      Zr     0.985140000000     0.985060000000     0.064780000000     1.43214    
Zr2      Zr     0.986030000000     0.904530000000     0.985580000000     1.42329    
Zr3      Zr     0.983710000000     0.064540000000     0.984640000000     1.4264     
Zr4      Zr     0.905180000000     0.983520000000     0.985200000000     1.43183    
Zr5      Zr     0.064660000000     0.985950000000     0.984870000000     1.43078    
Zr6      Zr     0.984710000000     0.983990000000     0.905230000000     1.42578    
Zr7      Zr     0.985820000000     0.485360000000     0.405210000000     1.44298    
Zr8      Zr     0.984320000000     0.564560000000     0.485730000000     1.42493    
Zr9      Zr     0.986350000000     0.404570000000     0.483770000000     1.43771    
Zr10     Zr     0.905360000000     0.483360000000     0.484320000000     1.43261    
Zr11     Zr     0.064940000000     0.485380000000     0.485220000000     1.44241    
Zr12     Zr     0.984950000000     0.483340000000     0.564580000000     1.43219    
Zr13     Zr     0.484220000000     0.984780000000     0.404830000000     1.43305    
Zr14     Zr     0.405470000000     0.985130000000     0.485550000000     1.4346     
Zr15     Zr     0.564970000000     0.984070000000     0.483720000000     1.43217    
Zr16     Zr     0.484630000000     0.904600000000     0.484090000000     1.43495    
Zr17     Zr     0.485600000000     0.064400000000     0.485200000000     1.42807    
Zr18     Zr     0.486200000000     0.983570000000     0.564530000000     1.43247    
Zr19     Zr     0.405280000000     0.484890000000     0.985240000000     1.43935    
Zr20     Zr     0.485540000000     0.564360000000     0.984350000000     1.43372    
Zr21     Zr     0.484660000000     0.404630000000     0.985130000000     1.43152    
Zr22     Zr     0.485300000000     0.485090000000     0.064720000000     1.42938    
Zr23     Zr     0.484340000000     0.484270000000     0.904920000000     1.4381     
Zr24     Zr     0.564790000000     0.483910000000     0.984250000000     1.43227    


