data_structure

_audit_creation_method RASPA-1.0
_audit_creation_date 2023-5-19
_audit_author_name 'Poobodin Mano'

_cell_length_a    21.5626
_cell_length_b    21.5563
_cell_length_c    21.5246
_cell_angle_alpha 90
_cell_angle_beta  90
_cell_angle_gamma 90
_cell_volume      10004.8

_symmetry_cell_setting          triclinic
_symmetry_space_group_name_Hall 'P 1'
_symmetry_space_group_name_H-M  'P 1'
_symmetry_Int_Tables_number     1

_symmetry_equiv_pos_as_xyz 'x,y,z'

loop_
_atom_site_label
_atom_site_type_symbol
_atom_site_fract_x
_atom_site_fract_y
_atom_site_fract_z
_atom_site_charge
C1       C      0.978810000000     0.130270000000     0.137340000000     0.394729   
C2       C      0.980590000000     0.814060000000     0.137330000000     0.394031   
C3       C      0.819660000000     0.968930000000     0.139090000000     0.394921   
C4       C      0.138500000000     0.968760000000     0.132810000000     0.398236   
C5       C      0.971800000000     0.814200000000     0.819080000000     0.394005   
C6       C      0.974840000000     0.130430000000     0.819030000000     0.393736   
C7       C      0.816140000000     0.815350000000     0.979700000000     0.393814   
C8       C      0.131980000000     0.810550000000     0.975600000000     0.397293   
C9       C      0.136190000000     0.128850000000     0.975050000000     0.391585   
C10      C      0.818840000000     0.132010000000     0.982190000000     0.398034   
C11      C      0.815330000000     0.973530000000     0.821920000000     0.395311   
C12      C      0.131200000000     0.971040000000     0.815310000000     0.399328   
C13      C      0.979770000000     0.314170000000     0.318970000000     0.399434   
C14      C      0.983380000000     0.630470000000     0.319250000000     0.398803   
C15      C      0.820460000000     0.473340000000     0.317130000000     0.393897   
C16      C      0.136230000000     0.471500000000     0.321310000000     0.393258   
C17      C      0.975050000000     0.630090000000     0.637630000000     0.399125   
C18      C      0.971660000000     0.313650000000     0.637120000000     0.396729   
C19      C      0.818520000000     0.632010000000     0.476080000000     0.397819   
C20      C      0.135700000000     0.630970000000     0.480900000000     0.394133   
C21      C      0.136540000000     0.314830000000     0.482250000000     0.398358   
C22      C      0.817560000000     0.314600000000     0.474380000000     0.392633   
C23      C      0.816540000000     0.476630000000     0.635260000000     0.394147   
C24      C      0.132490000000     0.467030000000     0.639410000000     0.397193   
C25      C      0.638220000000     0.966780000000     0.323060000000     0.392268   
C26      C      0.320290000000     0.970290000000     0.317000000000     0.394107   
C27      C      0.480570000000     0.808730000000     0.324160000000     0.398523   
C28      C      0.478970000000     0.127020000000     0.315640000000     0.392019   
C29      C      0.315590000000     0.974410000000     0.634160000000     0.394812   
C30      C      0.631300000000     0.976490000000     0.640490000000     0.399986   
C31      C      0.316740000000     0.815090000000     0.483180000000     0.399422   
C32      C      0.318430000000     0.131390000000     0.474620000000     0.393157   
C33      C      0.636270000000     0.130160000000     0.475450000000     0.397149   
C34      C      0.633750000000     0.812740000000     0.480370000000     0.394014   
C35      C      0.470710000000     0.817140000000     0.640440000000     0.394695   
C36      C      0.476930000000     0.133880000000     0.633590000000     0.394056   
C37      C      0.320870000000     0.310090000000     0.979110000000     0.396474   
C38      C      0.315630000000     0.628520000000     0.980300000000     0.393      
C39      C      0.320430000000     0.465530000000     0.139820000000     0.398477   
C40      C      0.315950000000     0.471620000000     0.821320000000     0.392069   
C41      C      0.631790000000     0.634340000000     0.982950000000     0.398374   
C42      C      0.638230000000     0.316910000000     0.973580000000     0.391859   
C43      C      0.477930000000     0.626880000000     0.140230000000     0.393396   
C44      C      0.467610000000     0.635690000000     0.824310000000     0.398905   
C45      C      0.477060000000     0.318730000000     0.814630000000     0.398253   
C46      C      0.482670000000     0.309060000000     0.131940000000     0.395187   
C47      C      0.636820000000     0.476180000000     0.135340000000     0.398674   
C48      C      0.632710000000     0.481150000000     0.816760000000     0.396781   
C49      C      0.471250000000     0.232540000000     0.283410000000     0.0245202  
C50      C      0.493260000000     0.155450000000     0.209350000000    -0.00531978 
C51      C      0.472760000000     0.277590000000     0.237000000000     0.0287994  
C52      C      0.497720000000     0.200860000000     0.162400000000     0.106723   
C53      C      0.521230000000     0.179430000000     0.099580000000    -0.197106   
C54      C      0.477030000000     0.732800000000     0.172030000000     0.0238123  
C55      C      0.483850000000     0.654260000000     0.247460000000    -0.00645061 
C56      C      0.478120000000     0.777650000000     0.218570000000     0.0270421  
C57      C      0.486620000000     0.699060000000     0.295030000000     0.107367   
C58      C      0.496220000000     0.674760000000     0.360520000000    -0.197218   
C59      C      0.474370000000     0.711420000000     0.672380000000     0.0245398  
C60      C      0.458960000000     0.789460000000     0.747120000000    -0.00538655 
C61      C      0.473010000000     0.666590000000     0.718860000000     0.027531   
C62      C      0.455330000000     0.744460000000     0.794450000000     0.108522   
C63      C      0.438180000000     0.767450000000     0.858790000000    -0.197841   
C64      C      0.480240000000     0.166260000000     0.739450000000     0.0249878  
C65      C      0.472900000000     0.241110000000     0.660410000000    -0.00481637 
C66      C      0.480300000000     0.213120000000     0.784010000000     0.0277546  
C67      C      0.471600000000     0.289020000000     0.704880000000     0.108005   
C68      C      0.463780000000     0.354430000000     0.680030000000    -0.196941   
C69      C      0.711370000000     0.282900000000     0.477420000000     0.0253626  
C70      C      0.789830000000     0.207820000000     0.468030000000    -0.00462325 
C71      C      0.666640000000     0.236060000000     0.477610000000     0.0287394  
C72      C      0.745300000000     0.160140000000     0.466620000000     0.109179   
C73      C      0.769680000000     0.094960000000     0.455720000000    -0.197978   
C74      C      0.665690000000     0.706570000000     0.482430000000     0.0236878  
C75      C      0.740360000000     0.785340000000     0.472090000000    -0.00477404 
C76      C      0.712620000000     0.661970000000     0.480960000000     0.0274203  
C77      C      0.788040000000     0.740980000000     0.468800000000     0.108117   
C78      C      0.852830000000     0.765700000000     0.456390000000    -0.196344   
C79      C      0.212250000000     0.162840000000     0.472850000000     0.0256664  
C80      C      0.290510000000     0.237820000000     0.484610000000    -0.00526961 
C81      C      0.167290000000     0.209300000000     0.475580000000     0.0281311  
C82      C      0.245720000000     0.285020000000     0.489450000000     0.108473   
C83      C      0.269860000000     0.349630000000     0.503880000000    -0.196979   
C84      C      0.241780000000     0.662610000000     0.477580000000     0.0248879  
C85      C      0.163500000000     0.737410000000     0.490600000000    -0.0053099  
C86      C      0.286530000000     0.709330000000     0.478590000000     0.0286915  
C87      C      0.208160000000     0.784820000000     0.493910000000     0.109943   
C88      C      0.184460000000     0.849270000000     0.509480000000    -0.198616   
C89      C      0.789290000000     0.468910000000     0.210600000000     0.0255631  
C90      C      0.714580000000     0.485080000000     0.288500000000    -0.00543859 
C91      C      0.742660000000     0.470230000000     0.165550000000     0.0281449  
C92      C      0.667510000000     0.489050000000     0.243570000000     0.109764   
C93      C      0.603710000000     0.507900000000     0.266680000000    -0.198095   
C94      C      0.168060000000     0.470830000000     0.215140000000     0.0237441  
C95      C      0.243130000000     0.465090000000     0.294090000000    -0.00482565 
C96      C      0.214770000000     0.468820000000     0.170420000000     0.0271349  
C97      C      0.290830000000     0.461860000000     0.249580000000     0.107636   
C98      C      0.356230000000     0.454060000000     0.274550000000    -0.19627    
C99      C      0.284110000000     0.478000000000     0.715350000000     0.0236835  
C100     C      0.210180000000     0.456590000000     0.792740000000    -0.00642436 
C101     C      0.237690000000     0.476150000000     0.670300000000     0.0264099  
C102     C      0.163310000000     0.451880000000     0.747470000000     0.107716   
C103     C      0.100550000000     0.428860000000     0.769340000000    -0.198649   
C104     C      0.784680000000     0.472060000000     0.741270000000     0.024323   
C105     C      0.710580000000     0.491010000000     0.663410000000    -0.00461972 
C106     C      0.738100000000     0.473570000000     0.786140000000     0.0278589  
C107     C      0.663460000000     0.495420000000     0.708470000000     0.107684   
C108     C      0.600170000000     0.516310000000     0.685940000000    -0.196427   
C109     C      0.784080000000     0.709510000000     0.977060000000     0.0254969  
C110     C      0.709290000000     0.788130000000     0.987510000000    -0.00546608 
C111     C      0.737360000000     0.664880000000     0.978280000000     0.0278306  
C112     C      0.661740000000     0.743550000000     0.991180000000     0.105188   
C113     C      0.597000000000     0.767830000000     0.004310000000    -0.1923     
C114     C      0.744550000000     0.285070000000     0.973580000000     0.0242398  
C115     C      0.665620000000     0.210300000000     0.981160000000    -0.00702445 
C116     C      0.789140000000     0.238100000000     0.976470000000     0.0274773  
C117     C      0.709820000000     0.162730000000     0.986560000000     0.108225   
C118     C      0.684570000000     0.098100000000     0.998860000000    -0.200414   
C119     C      0.284000000000     0.734660000000     0.982110000000     0.0230728  
C120     C      0.208840000000     0.656240000000     0.973080000000    -0.00547133 
C121     C      0.237490000000     0.779590000000     0.980450000000     0.0274486  
C122     C      0.161390000000     0.701010000000     0.969940000000     0.107817   
C123     C      0.096210000000     0.676620000000     0.959090000000    -0.198354   
C124     C      0.168410000000     0.234820000000     0.972630000000     0.0246399  
C125     C      0.243220000000     0.156090000000     0.981640000000    -0.00563727 
C126     C      0.215210000000     0.279500000000     0.974110000000     0.0277112  
C127     C      0.290910000000     0.200670000000     0.984920000000     0.109426   
C128     C      0.355790000000     0.176330000000     0.996980000000    -0.202677   
C129     C      0.783370000000     0.971570000000     0.715940000000     0.0254538  
C130     C      0.708420000000     0.980310000000     0.794770000000    -0.00503786 
C131     C      0.736760000000     0.972740000000     0.671200000000     0.0282242  
C132     C      0.660800000000     0.982870000000     0.750130000000     0.10913    
C133     C      0.595550000000     0.992770000000     0.774740000000    -0.201418   
C134     C      0.283460000000     0.975890000000     0.740140000000     0.0250452  
C135     C      0.208520000000     0.969620000000     0.661090000000    -0.00579508 
C136     C      0.236740000000     0.974730000000     0.784780000000     0.0279534  
C137     C      0.160760000000     0.967070000000     0.705580000000     0.108294   
C138     C      0.095390000000     0.958900000000     0.680640000000    -0.199345   
C139     C      0.214300000000     0.971070000000     0.285190000000     0.0257649  
C140     C      0.292940000000     0.966890000000     0.209730000000    -0.00491834 
C141     C      0.169530000000     0.970430000000     0.238510000000     0.0282114  
C142     C      0.248340000000     0.965820000000     0.161930000000     0.108557   
C143     C      0.273190000000     0.961760000000     0.096040000000    -0.198769   
C144     C      0.744420000000     0.974460000000     0.291880000000     0.0240858  
C145     C      0.667510000000     0.953520000000     0.217350000000    -0.00539077 
C146     C      0.789390000000     0.974930000000     0.245110000000     0.0272471  
C147     C      0.712560000000     0.950910000000     0.170280000000     0.105967   
C148     C      0.690820000000     0.928580000000     0.107060000000    -0.195623   
C149     C      0.981830000000     0.161890000000     0.712980000000     0.0257362  
C150     C      0.960520000000     0.236060000000     0.790230000000    -0.00528232 
C151     C      0.980540000000     0.208340000000     0.667880000000     0.0279645  
C152     C      0.955900000000     0.282820000000     0.744940000000     0.106133   
C153     C      0.932460000000     0.345530000000     0.766770000000    -0.196159   
C154     C      0.968500000000     0.782500000000     0.712850000000     0.0238899  
C155     C      0.978000000000     0.707500000000     0.791560000000    -0.00584718 
C156     C      0.969640000000     0.735760000000     0.668060000000     0.0278375  
C157     C      0.981080000000     0.659970000000     0.747000000000     0.10862    
C158     C      0.993140000000     0.595070000000     0.771600000000    -0.200927   
C159     C      0.978090000000     0.782710000000     0.243680000000     0.0247861  
C160     C      0.991300000000     0.707760000000     0.165450000000    -0.00399035 
C161     C      0.979200000000     0.736170000000     0.288690000000     0.02786    
C162     C      0.994780000000     0.660510000000     0.210390000000     0.10686    
C163     C      0.010300000000     0.596000000000     0.186690000000    -0.193266   
C164     C      0.975120000000     0.161850000000     0.243570000000     0.025385   
C165     C      0.986510000000     0.236860000000     0.165120000000    -0.00403514 
C166     C      0.975620000000     0.208520000000     0.288420000000     0.0284508  
C167     C      0.988860000000     0.284360000000     0.209810000000     0.106889   
C168     C      0.001460000000     0.349330000000     0.185570000000    -0.192824   
H1       H      0.888400000000     0.883890000000     0.068470000000     0.211193   
H2       H      0.067200000000     0.059380000000     0.064950000000     0.209502   
H3       H      0.886740000000     0.061840000000     0.890700000000     0.212423   
H4       H      0.062040000000     0.882100000000     0.887130000000     0.211076   
H5       H      0.889480000000     0.561940000000     0.388290000000     0.210305   
H6       H      0.066590000000     0.383930000000     0.390820000000     0.211396   
H7       H      0.886230000000     0.383660000000     0.565260000000     0.209533   
H8       H      0.064420000000     0.560750000000     0.569010000000     0.211031   
H9       H      0.388540000000     0.881490000000     0.390040000000     0.210627   
H10      H      0.566900000000     0.058050000000     0.388740000000     0.210477   
H11      H      0.563360000000     0.884790000000     0.570970000000     0.210675   
H12      H      0.386940000000     0.063490000000     0.563670000000     0.211918   
H13      H      0.387070000000     0.557190000000     0.070480000000     0.210955   
H14      H      0.388210000000     0.384460000000     0.888310000000     0.210949   
H15      H      0.568290000000     0.383390000000     0.063310000000     0.210424   
H16      H      0.562440000000     0.565650000000     0.890540000000     0.209781   
H17      H      0.463010000000     0.324860000000     0.251160000000     0.0294378  
H18      H      0.461110000000     0.247750000000     0.330340000000     0.0344514  
H19      H      0.502620000000     0.107500000000     0.197200000000     0.0410993  
H20      H      0.559360000000     0.210090000000     0.083550000000     0.0797094  
H21      H      0.540960000000     0.131840000000     0.101460000000     0.0621326  
H22      H      0.482910000000     0.178720000000     0.065270000000     0.0733714  
H23      H      0.475020000000     0.825570000000     0.203570000000     0.0318398  
H24      H      0.473680000000     0.748780000000     0.124380000000     0.0303079  
H25      H      0.486150000000     0.605650000000     0.260280000000     0.0363676  
H26      H      0.453860000000     0.682500000000     0.388820000000     0.0778104  
H27      H      0.505720000000     0.624100000000     0.361420000000     0.0613685  
H28      H      0.537220000000     0.697270000000     0.382130000000     0.0834239  
H29      H      0.479760000000     0.618940000000     0.704240000000     0.0295313  
H30      H      0.481570000000     0.695700000000     0.625070000000     0.0331439  
H31      H      0.452520000000     0.837820000000     0.759570000000     0.0409698  
H32      H      0.479010000000     0.765020000000     0.890020000000     0.0740689  
H33      H      0.422320000000     0.816500000000     0.858340000000     0.0637074  
H34      H      0.398960000000     0.739960000000     0.877770000000     0.0850631  
H35      H      0.483820000000     0.198400000000     0.832050000000     0.0315417  
H36      H      0.483500000000     0.118750000000     0.755680000000     0.0304311  
H37      H      0.469560000000     0.253560000000     0.611690000000     0.0414775  
H38      H      0.505890000000     0.382220000000     0.690090000000     0.0781765  
H39      H      0.457300000000     0.355520000000     0.628830000000     0.062541   
H40      H      0.421800000000     0.376340000000     0.700320000000     0.0793425  
H41      H      0.618730000000     0.250610000000     0.482290000000     0.0343879  
H42      H      0.695510000000     0.330450000000     0.481530000000     0.0342926  
H43      H      0.838330000000     0.195110000000     0.463690000000     0.0431504  
H44      H      0.745650000000     0.073450000000     0.415520000000     0.0814933  
H45      H      0.819880000000     0.094410000000     0.444080000000     0.06552    
H46      H      0.763910000000     0.066450000000     0.498300000000     0.0807286  
H47      H      0.698310000000     0.613960000000     0.485480000000     0.0322285  
H48      H      0.618270000000     0.690580000000     0.487420000000     0.0300826  
H49      H      0.752870000000     0.833910000000     0.467960000000     0.0426631  
H50      H      0.873430000000     0.742170000000     0.415390000000     0.0792038  
H51      H      0.852890000000     0.816040000000     0.445220000000     0.064369   
H52      H      0.882450000000     0.759700000000     0.498170000000     0.0789519  
H53      H      0.119400000000     0.194710000000     0.470800000000     0.0344676  
H54      H      0.196550000000     0.115440000000     0.466760000000     0.034994   
H55      H      0.339010000000     0.250540000000     0.488940000000     0.0414645  
H56      H      0.245510000000     0.369150000000     0.544930000000     0.0841716  
H57      H      0.319960000000     0.349590000000     0.516010000000     0.0629497  
H58      H      0.264440000000     0.380230000000     0.462730000000     0.077103   
H59      H      0.334350000000     0.694970000000     0.472540000000     0.0315345  
H60      H      0.257490000000     0.615210000000     0.471460000000     0.0333422  
H61      H      0.115100000000     0.750000000000     0.496200000000     0.0424508  
H62      H      0.187310000000     0.879780000000     0.468010000000     0.0788695  
H63      H      0.135190000000     0.848890000000     0.524640000000     0.0639972  
H64      H      0.211130000000     0.869020000000     0.548900000000     0.0846831  
H65      H      0.756800000000     0.462880000000     0.117760000000     0.0338995  
H66      H      0.836590000000     0.461390000000     0.195220000000     0.031654   
H67      H      0.701930000000     0.492030000000     0.336800000000     0.0425292  
H68      H      0.571870000000     0.467420000000     0.266150000000     0.0768695  
H69      H      0.604890000000     0.525690000000     0.315130000000     0.0634065  
H70      H      0.585120000000     0.546400000000     0.237970000000     0.084858   
H71      H      0.200000000000     0.470930000000     0.122310000000     0.0331042  
H72      H      0.120510000000     0.473980000000     0.199030000000     0.0279477  
H73      H      0.255790000000     0.463180000000     0.342850000000     0.0402893  
H74      H      0.384210000000     0.496170000000     0.264630000000     0.0771425  
H75      H      0.357180000000     0.447390000000     0.325740000000     0.0623169  
H76      H      0.378110000000     0.412040000000     0.254320000000     0.0808926  
H77      H      0.251730000000     0.485460000000     0.622820000000     0.0307601  
H78      H      0.331020000000     0.487810000000     0.700070000000     0.0319061  
H79      H      0.197980000000     0.447630000000     0.840820000000     0.0411763  
H80      H      0.084110000000     0.390640000000     0.738930000000     0.0849597  
H81      H      0.102520000000     0.409320000000     0.817080000000     0.0644513  
H82      H      0.066610000000     0.467490000000     0.770130000000     0.072078   
H83      H      0.752240000000     0.465140000000     0.833740000000     0.0332626  
H84      H      0.831710000000     0.463400000000     0.756820000000     0.0284372  
H85      H      0.698380000000     0.499010000000     0.615160000000     0.0424845  
H86      H      0.582630000000     0.554860000000     0.715290000000     0.0791343  
H87      H      0.601710000000     0.534610000000     0.637690000000     0.0641015  
H88      H      0.567310000000     0.476760000000     0.686150000000     0.074557   
H89      H      0.751960000000     0.616990000000     0.973510000000     0.0344446  
H90      H      0.831490000000     0.693520000000     0.971930000000     0.033891   
H91      H      0.696700000000     0.836700000000     0.991210000000     0.0370386  
H92      H      0.576920000000     0.743960000000     0.045370000000     0.0819759  
H93      H      0.596810000000     0.818120000000     0.015670000000     0.0599639  
H94      H      0.567120000000     0.761720000000     0.962810000000     0.0731258  
H95      H      0.837260000000     0.252370000000     0.973440000000     0.03283    
H96      H      0.760590000000     0.332530000000     0.969130000000     0.0330657  
H97      H      0.616990000000     0.197610000000     0.983130000000     0.037786   
H98      H      0.706710000000     0.078080000000     0.040880000000     0.0828076  
H99      H      0.633920000000     0.098210000000     0.008460000000     0.0616417  
H100     H      0.691840000000     0.067940000000     0.957660000000     0.0765972  
H101     H      0.252260000000     0.827520000000     0.984260000000     0.0295358  
H102     H      0.331520000000     0.750510000000     0.986600000000     0.0298307  
H103     H      0.196090000000     0.607670000000     0.969650000000     0.0417407  
H104     H      0.095460000000     0.625980000000     0.949490000000     0.0624389  
H105     H      0.067180000000     0.684230000000     0.001030000000     0.0802442  
H106     H      0.075390000000     0.699150000000     0.917660000000     0.0794299  
H107     H      0.200630000000     0.327470000000     0.970040000000     0.0326     
H108     H      0.120970000000     0.250870000000     0.968100000000     0.0337842  
H109     H      0.255780000000     0.107480000000     0.985310000000     0.0393948  
H110     H      0.375850000000     0.199680000000     0.038300000000     0.0844719  
H111     H      0.356250000000     0.125860000000     0.007500000000     0.0645284  
H112     H      0.385450000000     0.183240000000     0.955380000000     0.0777467  
H113     H      0.751510000000     0.969000000000     0.623180000000     0.0323115  
H114     H      0.830850000000     0.967340000000     0.699880000000     0.0342491  
H115     H      0.695870000000     0.983810000000     0.843460000000     0.0391071  
H116     H      0.566910000000     0.950730000000     0.766600000000     0.0790455  
H117     H      0.594770000000     0.001630000000     0.825590000000     0.0642054  
H118     H      0.574320000000     0.034230000000     0.752730000000     0.084956   
H119     H      0.251440000000     0.977500000000     0.832870000000     0.0329586  
H120     H      0.330980000000     0.979050000000     0.756330000000     0.0329502  
H121     H      0.195940000000     0.967560000000     0.612340000000     0.038899   
H122     H      0.067310000000     0.001010000000     0.690230000000     0.0831104  
H123     H      0.094500000000     0.951850000000     0.629500000000     0.0631148  
H124     H      0.073570000000     0.916970000000     0.701170000000     0.0806025  
H125     H      0.121560000000     0.972100000000     0.253530000000     0.0350203  
H126     H      0.198290000000     0.973020000000     0.332910000000     0.0336708  
H127     H      0.341580000000     0.965350000000     0.196940000000     0.0415541  
H128     H      0.260840000000     0.004260000000     0.069630000000     0.0796473  
H129     H      0.324570000000     0.958120000000     0.094520000000     0.0628622  
H130     H      0.255160000000     0.919500000000     0.072700000000     0.0822914  
H131     H      0.836680000000     0.984890000000     0.259040000000     0.0331651  
H132     H      0.759440000000     0.983260000000     0.339120000000     0.0291608  
H133     H      0.619710000000     0.943870000000     0.204860000000     0.0416021  
H134     H      0.722210000000     0.891730000000     0.089550000000     0.0803054  
H135     H      0.643870000000     0.907380000000     0.108970000000     0.0619134  
H136     H      0.688430000000     0.967930000000     0.073920000000     0.0720398  
H137     H      0.990200000000     0.194370000000     0.620460000000     0.0342044  
H138     H      0.991690000000     0.114910000000     0.697910000000     0.0325212  
H139     H      0.951320000000     0.248320000000     0.838260000000     0.0411942  
H140     H      0.894500000000     0.362010000000     0.736070000000     0.079995   
H141     H      0.912430000000     0.343370000000     0.814290000000     0.0637946  
H142     H      0.970940000000     0.379630000000     0.768080000000     0.0723814  
H143     H      0.965330000000     0.750280000000     0.620020000000     0.0312464  
H144     H      0.963950000000     0.830020000000     0.696940000000     0.0314219  
H145     H      0.981730000000     0.694820000000     0.840190000000     0.0385355  
H146     H      0.034690000000     0.575020000000     0.748720000000     0.0792581  
H147     H      0.003190000000     0.594620000000     0.822240000000     0.0631498  
H148     H      0.951750000000     0.565250000000     0.764450000000     0.0791657  
H149     H      0.973210000000     0.750680000000     0.336550000000     0.0302599  
H150     H      0.971810000000     0.830120000000     0.259320000000     0.0340325  
H151     H      0.996960000000     0.695130000000     0.116980000000     0.0402161  
H152     H      0.968960000000     0.565450000000     0.189810000000     0.0758568  
H153     H      0.025100000000     0.596310000000     0.137230000000     0.0636095  
H154     H      0.049870000000     0.576300000000     0.213160000000     0.0843312  
H155     H      0.970290000000     0.193960000000     0.336350000000     0.0337508  
H156     H      0.969900000000     0.114360000000     0.259350000000     0.0344055  
H157     H      0.991430000000     0.249520000000     0.116580000000     0.0423379  
H158     H      0.042010000000     0.369900000000     0.209820000000     0.0801814  
H159     H      0.013320000000     0.349680000000     0.135330000000     0.0644463  
H160     H      0.959620000000     0.378860000000     0.191130000000     0.0778086  
N1       N      0.480640000000     0.171340000000     0.269620000000    -0.168959   
N2       N      0.484630000000     0.262430000000     0.176140000000    -0.188538   
N3       N      0.479370000000     0.671060000000     0.186340000000    -0.170814   
N4       N      0.481980000000     0.761730000000     0.280290000000    -0.188179   
N5       N      0.468320000000     0.772950000000     0.686460000000    -0.169889   
N6       N      0.465000000000     0.682340000000     0.780220000000    -0.189067   
N7       N      0.476890000000     0.180130000000     0.677620000000    -0.170059   
N8       N      0.476350000000     0.274700000000     0.767700000000    -0.188125   
N9       N      0.773040000000     0.268820000000     0.473340000000    -0.169046   
N10      N      0.682770000000     0.174480000000     0.473210000000    -0.187852   
N11      N      0.679560000000     0.768310000000     0.478650000000    -0.169945   
N12      N      0.774010000000     0.678350000000     0.475120000000    -0.188082   
N13      N      0.273910000000     0.177080000000     0.476760000000    -0.169436   
N14      N      0.183180000000     0.270640000000     0.482820000000    -0.188039   
N15      N      0.180190000000     0.676670000000     0.482690000000    -0.169555   
N16      N      0.270440000000     0.770690000000     0.485450000000    -0.188728   
N17      N      0.775140000000     0.475310000000     0.272180000000    -0.169741   
N18      N      0.681480000000     0.478740000000     0.181430000000    -0.188345   
N19      N      0.182160000000     0.469470000000     0.277000000000    -0.170716   
N20      N      0.276360000000     0.465080000000     0.186680000000    -0.188009   
N21      N      0.270290000000     0.469280000000     0.776720000000    -0.169673   
N22      N      0.176900000000     0.464720000000     0.685760000000    -0.189259   
N23      N      0.770840000000     0.479520000000     0.679760000000    -0.170197   
N24      N      0.677130000000     0.483660000000     0.770400000000    -0.188182   
N25      N      0.770120000000     0.771190000000     0.981080000000    -0.170566   
N26      N      0.675930000000     0.681020000000     0.984410000000    -0.187801   
N27      N      0.682750000000     0.271170000000     0.975490000000    -0.16988    
N28      N      0.772620000000     0.176700000000     0.982180000000    -0.18815    
N29      N      0.269770000000     0.672930000000     0.978840000000    -0.169873   
N30      N      0.175980000000     0.763680000000     0.975140000000    -0.188258   
N31      N      0.182300000000     0.173060000000     0.976000000000    -0.169144   
N32      N      0.276690000000     0.263330000000     0.979550000000    -0.187985   
N33      N      0.769290000000     0.974850000000     0.777750000000    -0.170133   
N34      N      0.675270000000     0.977590000000     0.687360000000    -0.188766   
N35      N      0.269470000000     0.973580000000     0.678270000000    -0.170385   
N36      N      0.175210000000     0.970820000000     0.768460000000    -0.188488   
N37      N      0.276040000000     0.969510000000     0.270930000000    -0.169788   
N38      N      0.185540000000     0.968180000000     0.176710000000    -0.187741   
N39      N      0.683290000000     0.965140000000     0.277820000000    -0.169944   
N40      N      0.773900000000     0.964900000000     0.183980000000    -0.188247   
N41      N      0.972930000000     0.175890000000     0.774280000000    -0.169982   
N42      N      0.969100000000     0.269140000000     0.683300000000    -0.188823   
N43      N      0.972340000000     0.768400000000     0.774620000000    -0.170478   
N44      N      0.975330000000     0.674310000000     0.684270000000    -0.188776   
N45      N      0.983050000000     0.768470000000     0.181990000000    -0.169723   
N46      N      0.986090000000     0.674800000000     0.272780000000    -0.188431   
N47      N      0.979910000000     0.176000000000     0.181870000000    -0.169845   
N48      N      0.981540000000     0.269970000000     0.272360000000    -0.188232   
O1       O      0.979340000000     0.147080000000     0.079580000000    -0.37634    
O2       O      0.979270000000     0.797190000000     0.079560000000    -0.375656   
O3       O      0.877280000000     0.969770000000     0.156600000000    -0.372508   
O4       O      0.081390000000     0.970130000000     0.151910000000    -0.372519   
O5       O      0.153220000000     0.968610000000     0.074780000000    -0.382343   
O6       O      0.802990000000     0.972010000000     0.081600000000    -0.383325   
O7       O      0.979720000000     0.871370000000     0.155280000000    -0.374678   
O8       O      0.977750000000     0.072960000000     0.155330000000    -0.376192   
O9       O      0.039080000000     0.908970000000     0.039780000000    -0.502041   
O10      O      0.915120000000     0.035670000000     0.042470000000    -0.502961   
O11      O      0.913980000000     0.909900000000     0.042460000000    -0.654182   
O12      O      0.040530000000     0.033830000000     0.039590000000    -0.644637   
O13      O      0.972970000000     0.797460000000     0.876850000000    -0.378741   
O14      O      0.974440000000     0.147480000000     0.876740000000    -0.376327   
O15      O      0.799880000000     0.873160000000     0.980230000000    -0.379866   
O16      O      0.150640000000     0.867840000000     0.974870000000    -0.375603   
O17      O      0.152480000000     0.070980000000     0.975110000000    -0.375896   
O18      O      0.802830000000     0.074410000000     0.981570000000    -0.38402    
O19      O      0.872360000000     0.972560000000     0.803250000000    -0.377192   
O20      O      0.073370000000     0.972050000000     0.800310000000    -0.383244   
O21      O      0.799270000000     0.973960000000     0.879920000000    -0.377454   
O22      O      0.149990000000     0.970600000000     0.872570000000    -0.376793   
O23      O      0.873340000000     0.796980000000     0.978710000000    -0.377048   
O24      O      0.876350000000     0.149760000000     0.981170000000    -0.373177   
O25      O      0.078940000000     0.147250000000     0.975150000000    -0.373043   
O26      O      0.074200000000     0.795470000000     0.977350000000    -0.382602   
O27      O      0.971260000000     0.871520000000     0.801060000000    -0.376934   
O28      O      0.975910000000     0.073040000000     0.801240000000    -0.374939   
O29      O      0.038290000000     0.034400000000     0.913860000000    -0.502766   
O30      O      0.911570000000     0.909800000000     0.915840000000    -0.508596   
O31      O      0.912970000000     0.035790000000     0.916020000000    -0.654363   
O32      O      0.036940000000     0.908280000000     0.913450000000    -0.652999   
O33      O      0.979380000000     0.295800000000     0.376370000000    -0.376078   
O34      O      0.981900000000     0.648660000000     0.376740000000    -0.376195   
O35      O      0.878030000000     0.471770000000     0.299920000000    -0.3763     
O36      O      0.079000000000     0.472080000000     0.303040000000    -0.379186   
O37      O      0.152670000000     0.471860000000     0.379180000000    -0.37706    
O38      O      0.803010000000     0.474110000000     0.374670000000    -0.377566   
O39      O      0.981020000000     0.572860000000     0.303440000000    -0.384595   
O40      O      0.978110000000     0.371850000000     0.303430000000    -0.384478   
O41      O      0.040240000000     0.535450000000     0.416240000000    -0.50647    
O42      O      0.914440000000     0.409460000000     0.415080000000    -0.50438    
O43      O      0.914610000000     0.535900000000     0.414730000000    -0.652664   
O44      O      0.040330000000     0.409650000000     0.416430000000    -0.651156   
O45      O      0.975650000000     0.648500000000     0.580240000000    -0.375637   
O46      O      0.973700000000     0.295590000000     0.579640000000    -0.375402   
O47      O      0.800420000000     0.574600000000     0.475750000000    -0.373339   
O48      O      0.153500000000     0.573560000000     0.479840000000    -0.376548   
O49      O      0.152050000000     0.372530000000     0.480860000000    -0.38322    
O50      O      0.799730000000     0.372030000000     0.475840000000    -0.373905   
O51      O      0.873720000000     0.473580000000     0.653400000000    -0.379616   
O52      O      0.074680000000     0.468610000000     0.655050000000    -0.382888   
O53      O      0.799970000000     0.477310000000     0.577430000000    -0.375914   
O54      O      0.150950000000     0.469240000000     0.582120000000    -0.378368   
O55      O      0.876190000000     0.647770000000     0.477890000000    -0.383311   
O56      O      0.875240000000     0.297670000000     0.474230000000    -0.37397    
O57      O      0.079180000000     0.296430000000     0.481520000000    -0.372367   
O58      O      0.078100000000     0.647880000000     0.481010000000    -0.376498   
O59      O      0.973890000000     0.572340000000     0.653090000000    -0.384166   
O60      O      0.972930000000     0.371270000000     0.653210000000    -0.385897   
O61      O      0.038740000000     0.409290000000     0.541600000000    -0.506101   
O62      O      0.913160000000     0.535460000000     0.540190000000    -0.50653    
O63      O      0.912690000000     0.409180000000     0.539640000000    -0.65148    
O64      O      0.038790000000     0.535370000000     0.542400000000    -0.653528   
O65      O      0.655190000000     0.970200000000     0.380720000000    -0.376107   
O66      O      0.301870000000     0.971930000000     0.374230000000    -0.37745    
O67      O      0.480900000000     0.865850000000     0.305050000000    -0.374587   
O68      O      0.481170000000     0.069060000000     0.299580000000    -0.373177   
O69      O      0.476110000000     0.145640000000     0.372790000000    -0.374517   
O70      O      0.477810000000     0.793980000000     0.382130000000    -0.383667   
O71      O      0.378140000000     0.969010000000     0.300750000000    -0.377222   
O72      O      0.580830000000     0.965060000000     0.305350000000    -0.376115   
O73      O      0.415370000000     0.034150000000     0.412450000000    -0.505562   
O74      O      0.539690000000     0.907740000000     0.418410000000    -0.506532   
O75      O      0.414160000000     0.907890000000     0.415630000000    -0.651552   
O76      O      0.540500000000     0.033040000000     0.414910000000    -0.651303   
O77      O      0.299570000000     0.973470000000     0.576180000000    -0.378111   
O78      O      0.650110000000     0.975080000000     0.583240000000    -0.377162   
O79      O      0.374040000000     0.796840000000     0.483760000000    -0.375491   
O80      O      0.376170000000     0.148100000000     0.475110000000    -0.375448   
O81      O      0.578930000000     0.148420000000     0.474220000000    -0.374603   
O82      O      0.576360000000     0.794930000000     0.481940000000    -0.376276   
O83      O      0.469920000000     0.875070000000     0.656460000000    -0.375702   
O84      O      0.475920000000     0.076800000000     0.652350000000    -0.376715   
O85      O      0.473650000000     0.798450000000     0.583380000000    -0.377799   
O86      O      0.477450000000     0.149870000000     0.575570000000    -0.375473   
O87      O      0.301030000000     0.872720000000     0.479240000000    -0.381611   
O88      O      0.650610000000     0.870370000000     0.479890000000    -0.377469   
O89      O      0.651770000000     0.072470000000     0.478970000000    -0.381137   
O90      O      0.300450000000     0.074090000000     0.473700000000    -0.37484    
O91      O      0.372630000000     0.975790000000     0.652840000000    -0.377394   
O92      O      0.573470000000     0.975790000000     0.655540000000    -0.384911   
O93      O      0.538360000000     0.036290000000     0.540890000000    -0.505593   
O94      O      0.412030000000     0.911390000000     0.541200000000    -0.508095   
O95      O      0.538050000000     0.910190000000     0.544090000000    -0.652404   
O96      O      0.413000000000     0.037110000000     0.538530000000    -0.652924   
O97      O      0.378820000000     0.295180000000     0.976200000000    -0.381094   
O98      O      0.372760000000     0.646840000000     0.982180000000    -0.378783   
O99      O      0.301630000000     0.466670000000     0.082560000000    -0.375163   
O100     O      0.299420000000     0.468680000000     0.879140000000    -0.375305   
O101     O      0.373120000000     0.475610000000     0.803210000000    -0.375846   
O102     O      0.378310000000     0.466180000000     0.154830000000    -0.384372   
O103     O      0.299280000000     0.570630000000     0.979300000000    -0.374778   
O104     O      0.302040000000     0.367230000000     0.980500000000    -0.374603   
O105     O      0.411140000000     0.535320000000     0.918190000000    -0.506956   
O106     O      0.415500000000     0.406470000000     0.040100000000    -0.506327   
O107     O      0.412860000000     0.532260000000     0.043610000000    -0.651597   
O108     O      0.413750000000     0.410370000000     0.914460000000    -0.652626   
O109     O      0.573860000000     0.649350000000     0.982580000000    -0.382746   
O110     O      0.580690000000     0.299760000000     0.973130000000    -0.380391   
O111     O      0.478960000000     0.568900000000     0.156150000000    -0.378657   
O112     O      0.469140000000     0.578640000000     0.805300000000    -0.37913    
O113     O      0.476330000000     0.376750000000     0.799930000000    -0.382427   
O114     O      0.481210000000     0.366180000000     0.150900000000    -0.378001   
O115     O      0.654510000000     0.476600000000     0.077710000000    -0.371752   
O116     O      0.651250000000     0.479210000000     0.874050000000    -0.375928   
O117     O      0.579420000000     0.472150000000     0.151710000000    -0.383085   
O118     O      0.574880000000     0.479600000000     0.801160000000    -0.381914   
O119     O      0.475690000000     0.645610000000     0.083170000000    -0.379675   
O120     O      0.481160000000     0.293930000000     0.073880000000    -0.380682   
O121     O      0.478370000000     0.299680000000     0.871770000000    -0.378035   
O122     O      0.470110000000     0.650690000000     0.882280000000    -0.383526   
O123     O      0.650660000000     0.577280000000     0.980700000000    -0.37453    
O124     O      0.655760000000     0.374460000000     0.973940000000    -0.374689   
O125     O      0.539980000000     0.412860000000     0.912550000000    -0.504224   
O126     O      0.539010000000     0.534270000000     0.041400000000    -0.505566   
O127     O      0.541730000000     0.409280000000     0.038180000000    -0.650834   
O128     O      0.537800000000     0.538280000000     0.916080000000    -0.650469   
Zr1      Zr     0.978260000000     0.972130000000     0.103960000000     1.42014    
Zr2      Zr     0.974570000000     0.847540000000     0.978160000000     1.42559    
Zr3      Zr     0.977210000000     0.097210000000     0.978110000000     1.4205     
Zr4      Zr     0.852110000000     0.973260000000     0.980070000000     1.4243     
Zr5      Zr     0.100870000000     0.970270000000     0.975010000000     1.41948    
Zr6      Zr     0.973810000000     0.972230000000     0.852710000000     1.42582    
Zr7      Zr     0.977850000000     0.472370000000     0.353840000000     1.42583    
Zr8      Zr     0.977100000000     0.597710000000     0.478510000000     1.42322    
Zr9      Zr     0.977050000000     0.346660000000     0.478070000000     1.42071    
Zr10     Zr     0.851440000000     0.473050000000     0.476690000000     1.4264     
Zr11     Zr     0.101450000000     0.472900000000     0.480050000000     1.42874    
Zr12     Zr     0.974720000000     0.471820000000     0.602480000000     1.42518    
Zr13     Zr     0.478530000000     0.968870000000     0.353060000000     1.4226     
Zr14     Zr     0.351790000000     0.973320000000     0.475760000000     1.42642    
Zr15     Zr     0.601180000000     0.971740000000     0.480670000000     1.42416    
Zr16     Zr     0.475670000000     0.847150000000     0.481500000000     1.42774    
Zr17     Zr     0.477370000000     0.097410000000     0.475240000000     1.4269     
Zr18     Zr     0.474000000000     0.974960000000     0.603100000000     1.42699    
Zr19     Zr     0.350860000000     0.469650000000     0.980150000000     1.42248    
Zr20     Zr     0.474010000000     0.596760000000     0.981420000000     1.42652    
Zr21     Zr     0.478820000000     0.348000000000     0.974420000000     1.4224     
Zr22     Zr     0.478160000000     0.468900000000     0.102620000000     1.42575    
Zr23     Zr     0.474650000000     0.476230000000     0.853360000000     1.42398    
Zr24     Zr     0.602470000000     0.474820000000     0.976440000000     1.42082    


