data_structure

_audit_creation_method RASPA-1.0
_audit_creation_date 2023-5-19
_audit_author_name 'Poobodin Mano'

_cell_length_a    21.4427
_cell_length_b    21.4365
_cell_length_c    21.4064
_cell_angle_alpha 90
_cell_angle_beta  90
_cell_angle_gamma 90
_cell_volume      9839.59

_symmetry_cell_setting          triclinic
_symmetry_space_group_name_Hall 'P 1'
_symmetry_space_group_name_H-M  'P 1'
_symmetry_Int_Tables_number     1

_symmetry_equiv_pos_as_xyz 'x,y,z'

loop_
_atom_site_label
_atom_site_type_symbol
_atom_site_fract_x
_atom_site_fract_y
_atom_site_fract_z
_atom_site_charge
C1       C      0.984250000000     0.138810000000     0.138250000000     0.389301   
C2       C      0.990200000000     0.820800000000     0.140230000000     0.403902   
C3       C      0.823190000000     0.974460000000     0.141880000000     0.400756   
C4       C      0.141370000000     0.985640000000     0.136740000000     0.391296   
C5       C      0.984350000000     0.818310000000     0.821520000000     0.388414   
C6       C      0.985970000000     0.136640000000     0.819120000000     0.391971   
C7       C      0.820780000000     0.820080000000     0.972440000000     0.404125   
C8       C      0.138500000000     0.818730000000     0.989410000000     0.403604   
C9       C      0.139560000000     0.137800000000     0.980400000000     0.38976    
C10      C      0.821380000000     0.138100000000     0.989790000000     0.391815   
C11      C      0.817980000000     0.972460000000     0.822540000000     0.398707   
C12      C      0.137220000000     0.970520000000     0.818480000000     0.390358   
C13      C      0.965060000000     0.320090000000     0.318640000000     0.400888   
C14      C      0.975180000000     0.638170000000     0.320670000000     0.390446   
C15      C      0.816770000000     0.474160000000     0.321200000000     0.403816   
C16      C      0.135440000000     0.470460000000     0.317900000000     0.398599   
C17      C      0.973320000000     0.634860000000     0.640210000000     0.40294    
C18      C      0.967870000000     0.316480000000     0.637230000000     0.399844   
C19      C      0.821820000000     0.640250000000     0.486900000000     0.390862   
C20      C      0.141210000000     0.632860000000     0.481180000000     0.400098   
C21      C      0.132250000000     0.313970000000     0.484880000000     0.402676   
C22      C      0.814560000000     0.322160000000     0.472140000000     0.403112   
C23      C      0.820080000000     0.488650000000     0.639730000000     0.3937     
C24      C      0.138130000000     0.477340000000     0.637160000000     0.388847   
C25      C      0.639980000000     0.992740000000     0.320810000000     0.390179   
C26      C      0.322010000000     0.968610000000     0.315810000000     0.400273   
C27      C      0.491410000000     0.823160000000     0.315490000000     0.390139   
C28      C      0.468890000000     0.141190000000     0.320730000000     0.392686   
C29      C      0.316490000000     0.980630000000     0.634180000000     0.40047    
C30      C      0.635650000000     0.986010000000     0.639400000000     0.388702   
C31      C      0.322960000000     0.816830000000     0.469180000000     0.387755   
C32      C      0.315710000000     0.134800000000     0.468440000000     0.391736   
C33      C      0.632830000000     0.142960000000     0.490240000000     0.392758   
C34      C      0.642030000000     0.824640000000     0.472330000000     0.401977   
C35      C      0.472000000000     0.817170000000     0.634010000000     0.403828   
C36      C      0.467890000000     0.135900000000     0.640450000000     0.399819   
C37      C      0.322250000000     0.319190000000     0.970470000000     0.403416   
C38      C      0.640840000000     0.323020000000     0.980620000000     0.400901   
C39      C      0.485560000000     0.318570000000     0.821360000000     0.388342   
C40      C      0.485780000000     0.323830000000     0.140920000000     0.403469   
C41      C      0.636560000000     0.641200000000     0.982810000000     0.390892   
C42      C      0.318460000000     0.638130000000     0.968950000000     0.3895     
C43      C      0.639120000000     0.474300000000     0.820130000000     0.401449   
C44      C      0.636590000000     0.489290000000     0.138640000000     0.390497   
C45      C      0.318330000000     0.486300000000     0.136800000000     0.389983   
C46      C      0.320690000000     0.466380000000     0.818480000000     0.403103   
C47      C      0.487610000000     0.636930000000     0.816510000000     0.392737   
C48      C      0.468610000000     0.641870000000     0.135520000000     0.401256   
C49      C      0.455510000000     0.172000000000     0.209560000000    -0.0151922  
C50      C      0.454670000000     0.253040000000     0.293680000000    -0.065146   
C51      C      0.499100000000     0.212880000000     0.170660000000    -0.0109482  
C52      C      0.498390000000     0.294160000000     0.254690000000     0.163519   
C53      C      0.503200000000     0.793670000000     0.203360000000    -0.0161571  
C54      C      0.501720000000     0.711460000000     0.286400000000    -0.0662541  
C55      C      0.458560000000     0.754010000000     0.163690000000    -0.0112206  
C56      C      0.454240000000     0.673980000000     0.248460000000     0.164604   
C57      C      0.501620000000     0.747910000000     0.785860000000    -0.0155196  
C58      C      0.501590000000     0.664070000000     0.704500000000    -0.0663913  
C59      C      0.458410000000     0.787320000000     0.745050000000    -0.0107645  
C60      C      0.458260000000     0.703610000000     0.663480000000     0.164434   
C61      C      0.496990000000     0.287900000000     0.709930000000    -0.0152044  
C62      C      0.497290000000     0.206530000000     0.793910000000    -0.0652564  
C63      C      0.454050000000     0.246820000000     0.670420000000    -0.0104964  
C64      C      0.454090000000     0.165460000000     0.754190000000     0.163962   
C65      C      0.661730000000     0.254810000000     0.504010000000    -0.0157753  
C66      C      0.743960000000     0.171940000000     0.503690000000    -0.0660276  
C67      C      0.702470000000     0.294900000000     0.460800000000    -0.0115491  
C68      C      0.782210000000     0.209760000000     0.456950000000     0.164563   
C69      C      0.710920000000     0.671560000000     0.499200000000    -0.0155865  
C70      C      0.795340000000     0.752070000000     0.502500000000    -0.0650251  
C71      C      0.672120000000     0.714100000000     0.457230000000    -0.010453   
C72      C      0.755870000000     0.795550000000     0.461340000000     0.163494   
C73      C      0.284380000000     0.245710000000     0.455970000000    -0.0152669  
C74      C      0.203830000000     0.161290000000     0.453250000000    -0.0663806  
C75      C      0.242860000000     0.283900000000     0.499490000000    -0.0108388  
C76      C      0.161540000000     0.200090000000     0.496200000000     0.164022   
C77      C      0.212000000000     0.786410000000     0.455850000000    -0.0156661  
C78      C      0.295870000000     0.705480000000     0.451890000000    -0.0648741  
C79      C      0.171970000000     0.743150000000     0.495890000000    -0.00993579 
C80      C      0.255250000000     0.661000000000     0.490840000000     0.163603   
C81      C      0.747710000000     0.503220000000     0.168740000000    -0.015471   
C82      C      0.664120000000     0.502790000000     0.250440000000    -0.0663228  
C83      C      0.787810000000     0.460900000000     0.209890000000    -0.0102193  
C84      C      0.703700000000     0.459260000000     0.290980000000     0.165156   
C85      C      0.287950000000     0.499710000000     0.248200000000    -0.0160306  
C86      C      0.206400000000     0.498290000000     0.164510000000    -0.0634356  
C87      C      0.246770000000     0.457760000000     0.288870000000    -0.0102981  
C88      C      0.166020000000     0.455100000000     0.204620000000     0.166426   
C89      C      0.249610000000     0.491200000000     0.666100000000    -0.0163923  
C90      C      0.166930000000     0.486200000000     0.749000000000    -0.0667152  
C91      C      0.292320000000     0.451010000000     0.707060000000    -0.0105073  
C92      C      0.208930000000     0.443680000000     0.788060000000     0.165231   
C93      C      0.791090000000     0.505330000000     0.751140000000    -0.0158768  
C94      C      0.708830000000     0.502700000000     0.668240000000    -0.0636241  
C95      C      0.750870000000     0.462770000000     0.792200000000    -0.0104407  
C96      C      0.670570000000     0.457320000000     0.707520000000     0.166581   
C97      C      0.666550000000     0.752480000000     0.995940000000    -0.0177994  
C98      C      0.747850000000     0.668510000000     0.997860000000    -0.0678534  
C99      C      0.709670000000     0.792650000000     0.955540000000    -0.00962226 
C100     C      0.789650000000     0.707660000000     0.955350000000     0.165214   
C101     C      0.710520000000     0.168050000000     0.005650000000    -0.0101821  
C102     C      0.794380000000     0.248610000000     0.011210000000    -0.0619158  
C103     C      0.670340000000     0.212350000000     0.966810000000    -0.0132753  
C104     C      0.754490000000     0.294000000000     0.972830000000     0.161757   
C105     C      0.287960000000     0.749240000000     0.954730000000    -0.0154621  
C106     C      0.206210000000     0.665930000000     0.961170000000    -0.0681774  
C107     C      0.250070000000     0.789660000000     0.999810000000    -0.0123122  
C108     C      0.169280000000     0.706050000000     0.007450000000     0.167647   
C109     C      0.169340000000     0.249000000000     0.993640000000    -0.0178319  
C110     C      0.251200000000     0.165390000000     0.992500000000    -0.0676769  
C111     C      0.211570000000     0.290320000000     0.953600000000    -0.010148   
C112     C      0.292670000000     0.206580000000     0.951410000000     0.164907   
C113     C      0.746690000000     0.000640000000     0.669820000000    -0.0112478  
C114     C      0.663300000000     0.997790000000     0.751600000000    -0.0658934  
C115     C      0.788360000000     0.959900000000     0.711200000000    -0.013069   
C116     C      0.704780000000     0.956380000000     0.792630000000     0.166117   
C117     C      0.247910000000     0.955540000000     0.787760000000    -0.0143363  
C118     C      0.163660000000     0.953680000000     0.706830000000    -0.0623561  
C119     C      0.287660000000     0.996440000000     0.745020000000    -0.0126373  
C120     C      0.203300000000     0.994920000000     0.664080000000     0.164024   
C121     C      0.252790000000     0.000810000000     0.165680000000    -0.0108524  
C122     C      0.170390000000     0.993560000000     0.248610000000    -0.0654918  
C123     C      0.294310000000     0.956770000000     0.203780000000    -0.0122827  
C124     C      0.210470000000     0.946600000000     0.283960000000     0.167041   
C125     C      0.671160000000     0.006280000000     0.209740000000    -0.0100265  
C126     C      0.751800000000     0.007710000000     0.294120000000    -0.0601472  
C127     C      0.712070000000     0.962320000000     0.171290000000    -0.013133   
C128     C      0.793070000000     0.963630000000     0.255690000000     0.161619   
C129     C      0.999470000000     0.247790000000     0.788540000000    -0.0174304  
C130     C      0.996510000000     0.164180000000     0.706850000000    -0.065201   
C131     C      0.955540000000     0.287670000000     0.748810000000    -0.0100571  
C132     C      0.951350000000     0.203570000000     0.668050000000     0.166784   
C133     C      0.998090000000     0.788270000000     0.710250000000    -0.0177649  
C134     C      0.998810000000     0.706800000000     0.794120000000    -0.0684444  
C135     C      0.957990000000     0.745680000000     0.669380000000    -0.0097071  
C136     C      0.957920000000     0.664480000000     0.753480000000     0.165446   
C137     C      0.962310000000     0.668800000000     0.209420000000    -0.0180502  
C138     C      0.965100000000     0.750240000000     0.293470000000    -0.0676778  
C139     C      0.004510000000     0.709620000000     0.168860000000    -0.00588389 
C140     C      0.008240000000     0.790400000000     0.253010000000     0.168598   
C141     C      0.994930000000     0.169000000000     0.249960000000    -0.0179488  
C142     C      0.992630000000     0.250960000000     0.166320000000    -0.0650753  
C143     C      0.950900000000     0.208810000000     0.289720000000    -0.0099065  
C144     C      0.947130000000     0.289370000000     0.205690000000     0.166764   
H1       H      0.891820000000     0.888870000000     0.070870000000     0.211264   
H2       H      0.069820000000     0.068170000000     0.066700000000     0.214152   
H3       H      0.889280000000     0.068090000000     0.890430000000     0.206512   
H4       H      0.068440000000     0.888280000000     0.891330000000     0.212369   
H5       H      0.888570000000     0.569520000000     0.391230000000     0.20978    
H6       H      0.063580000000     0.386080000000     0.388580000000     0.210101   
H7       H      0.885120000000     0.389650000000     0.568450000000     0.210342   
H8       H      0.068280000000     0.564080000000     0.568670000000     0.210852   
H9       H      0.394410000000     0.889060000000     0.385560000000     0.211843   
H10      H      0.566330000000     0.073860000000     0.391370000000     0.20826    
H11      H      0.568920000000     0.890680000000     0.567520000000     0.208948   
H12      H      0.385560000000     0.065640000000     0.565820000000     0.211698   
H13      H      0.569520000000     0.390950000000     0.891780000000     0.213203   
H14      H      0.389420000000     0.390450000000     0.068900000000     0.208734   
H15      H      0.389550000000     0.566990000000     0.885700000000     0.208355   
H16      H      0.565180000000     0.572010000000     0.067220000000     0.212336   
H17      H      0.547950000000     0.198760000000     0.180930000000     0.0387498  
H18      H      0.465470000000     0.122290000000     0.198780000000     0.0423804  
H19      H      0.547320000000     0.282540000000     0.268270000000     0.00211683 
H20      H      0.463760000000     0.261950000000     0.344010000000     0.0565052  
H21      H      0.490320000000     0.202850000000     0.120510000000     0.0448997  
H22      H      0.406710000000     0.181800000000     0.194940000000     0.0420156  
H23      H      0.405730000000     0.267260000000     0.283900000000     0.0603041  
H24      H      0.509460000000     0.367410000000     0.307230000000     0.136383   
H25      H      0.410180000000     0.770440000000     0.172710000000     0.037727   
H26      H      0.494190000000     0.843750000000     0.193510000000     0.0412578  
H27      H      0.406690000000     0.690470000000     0.261960000000     0.00274231 
H28      H      0.494060000000     0.702130000000     0.336880000000     0.0592322  
H29      H      0.468850000000     0.762910000000     0.113620000000     0.0408945  
H30      H      0.551710000000     0.783220000000     0.188260000000     0.039612   
H31      H      0.549310000000     0.694610000000     0.274410000000     0.0609555  
H32      H      0.436240000000     0.603050000000     0.302280000000     0.138404   
H33      H      0.409450000000     0.777530000000     0.759160000000     0.0379366  
H34      H      0.491780000000     0.758660000000     0.835660000000     0.0414504  
H35      H      0.409210000000     0.690560000000     0.675180000000     0.00180719 
H36      H      0.491880000000     0.613940000000     0.695500000000     0.0617575  
H37      H      0.467760000000     0.837260000000     0.755200000000     0.0417984  
H38      H      0.550560000000     0.762070000000     0.776090000000     0.0409293  
H39      H      0.550620000000     0.673300000000     0.690210000000     0.0636742  
H40      H      0.446480000000     0.651370000000     0.590070000000     0.136706   
H41      H      0.405000000000     0.260670000000     0.680130000000     0.0379129  
H42      H      0.486540000000     0.337560000000     0.699340000000     0.0406829  
H43      H      0.405000000000     0.177040000000     0.767190000000     0.00229401 
H44      H      0.487240000000     0.197600000000     0.844050000000     0.0597729  
H45      H      0.463400000000     0.256960000000     0.620400000000     0.0408595  
H46      H      0.545980000000     0.278790000000     0.695500000000     0.038435   
H47      H      0.546360000000     0.192200000000     0.784980000000     0.0609137  
H48      H      0.442420000000     0.092160000000     0.806530000000     0.135442   
H49      H      0.686920000000     0.286870000000     0.411880000000     0.0387117  
H50      H      0.611890000000     0.264700000000     0.493840000000     0.0409072  
H51      H      0.766420000000     0.196690000000     0.408970000000     0.00321683 
H52      H      0.753570000000     0.121550000000     0.496290000000     0.0593093  
H53      H      0.693700000000     0.344790000000     0.471760000000     0.0439266  
H54      H      0.670950000000     0.269300000000     0.553030000000     0.0395255  
H55      H      0.759780000000     0.184010000000     0.551710000000     0.0588841  
H56      H      0.853200000000     0.155900000000     0.439560000000     0.139754   
H57      H      0.682270000000     0.701850000000     0.407760000000     0.0403744  
H58      H      0.699900000000     0.622300000000     0.487370000000     0.0472341  
H59      H      0.769400000000     0.787140000000     0.411670000000     0.00232222 
H60      H      0.845440000000     0.760990000000     0.492620000000     0.0567911  
H61      H      0.622080000000     0.703700000000     0.465700000000     0.0463922  
H62      H      0.696520000000     0.679540000000     0.548480000000     0.0438653  
H63      H      0.786870000000     0.764300000000     0.552300000000     0.0609301  
H64      H      0.807820000000     0.869710000000     0.454900000000     0.136633   
H65      H      0.256130000000     0.272870000000     0.548500000000     0.0385142  
H66      H      0.333900000000     0.256690000000     0.466550000000     0.0419366  
H67      H      0.171640000000     0.186040000000     0.545410000000     0.0034417  
H68      H      0.195110000000     0.111000000000     0.462390000000     0.0615816  
H69      H      0.253100000000     0.334090000000     0.491660000000     0.0422126  
H70      H      0.275050000000     0.260730000000     0.407110000000     0.0409155  
H71      H      0.190470000000     0.170800000000     0.403930000000     0.0634353  
H72      H      0.087920000000     0.147650000000     0.504460000000     0.145566   
H73      H      0.180840000000     0.754280000000     0.545860000000     0.0405171  
H74      H      0.201120000000     0.835390000000     0.468890000000     0.0460542  
H75      H      0.268320000000     0.667190000000     0.540950000000     0.00219785 
H76      H      0.345670000000     0.695990000000     0.462730000000     0.0583726  
H77      H      0.122230000000     0.754000000000     0.486230000000     0.0423276  
H78      H      0.198440000000     0.779970000000     0.406110000000     0.0385538  
H79      H      0.288560000000     0.694760000000     0.401560000000     0.060058   
H80      H      0.306230000000     0.585990000000     0.494850000000     0.135729   
H81      H      0.779270000000     0.411700000000     0.195740000000     0.0412883  
H82      H      0.758290000000     0.492890000000     0.118990000000     0.047336   
H83      H      0.691240000000     0.410240000000     0.278440000000     0.00463018 
H84      H      0.614060000000     0.492970000000     0.259610000000     0.0640598  
H85      H      0.837570000000     0.471430000000     0.200070000000     0.0421913  
H86      H      0.761470000000     0.552420000000     0.177800000000     0.0396186  
H87      H      0.673420000000     0.551770000000     0.264900000000     0.0613853  
H88      H      0.651390000000     0.445470000000     0.363980000000     0.13705    
H89      H      0.261030000000     0.408510000000     0.280940000000     0.0380964  
H90      H      0.337600000000     0.489340000000     0.258850000000     0.0494315  
H91      H      0.179390000000     0.406370000000     0.191750000000    -0.000271256
H92      H      0.197290000000     0.487870000000     0.114470000000     0.0640842  
H93      H      0.256490000000     0.468910000000     0.338610000000     0.0463645  
H94      H      0.279060000000     0.549050000000     0.261580000000     0.0459658  
H95      H      0.191780000000     0.547330000000     0.173220000000     0.0645273  
H96      H      0.082060000000     0.424710000000     0.187950000000     0.15577    
H97      H      0.286490000000     0.401480000000     0.692720000000     0.0389199  
H98      H      0.259800000000     0.480690000000     0.616300000000     0.0435461  
H99      H      0.199230000000     0.394500000000     0.773800000000     0.00321696 
H100     H      0.117530000000     0.473630000000     0.758420000000     0.0620216  
H101     H      0.341420000000     0.464320000000     0.697210000000     0.0409703  
H102     H      0.261540000000     0.541030000000     0.674270000000     0.0395594  
H103     H      0.173940000000     0.535220000000     0.764550000000     0.0629728  
H104     H      0.157680000000     0.424230000000     0.860540000000     0.136964   
H105     H      0.766430000000     0.413830000000     0.784790000000     0.0358471  
H106     H      0.841030000000     0.496010000000     0.761380000000     0.0440796  
H107     H      0.686520000000     0.409390000000     0.694550000000    -0.00153658 
H108     H      0.699250000000     0.493640000000     0.618030000000     0.064384   
H109     H      0.760050000000     0.474580000000     0.841890000000     0.0420738  
H110     H      0.781320000000     0.554520000000     0.764440000000     0.0423825  
H111     H      0.693140000000     0.551050000000     0.678800000000     0.0640541  
H112     H      0.588180000000     0.422710000000     0.691530000000     0.144358   
H113     H      0.697050000000     0.785010000000     0.905730000000     0.0373371  
H114     H      0.617430000000     0.763100000000     0.983220000000     0.041217   
H115     H      0.778000000000     0.695680000000     0.905930000000     0.00355831 
H116     H      0.757150000000     0.618380000000     0.988510000000     0.0586803  
H117     H      0.700120000000     0.842410000000     0.966400000000     0.0388166  
H118     H      0.673310000000     0.766080000000     0.045620000000     0.0400068  
H119     H      0.761020000000     0.677870000000     0.047260000000     0.0608805  
H120     H      0.862220000000     0.654600000000     0.942680000000     0.13711    
H121     H      0.678170000000     0.201670000000     0.916560000000     0.0392279  
H122     H      0.699550000000     0.119350000000     0.991640000000     0.0438042  
H123     H      0.767860000000     0.288790000000     0.922690000000     0.000355167
H124     H      0.844350000000     0.258400000000     0.001540000000     0.0576283  
H125     H      0.620660000000     0.201920000000     0.977210000000     0.0437342  
H126     H      0.697410000000     0.173520000000     0.055620000000     0.0415816  
H127     H      0.786250000000     0.258130000000     0.061670000000     0.0624448  
H128     H      0.805740000000     0.368930000000     0.970650000000     0.136016   
H129     H      0.267240000000     0.780750000000     0.048030000000     0.0408587  
H130     H      0.338260000000     0.759680000000     0.961400000000     0.0407932  
H131     H      0.185790000000     0.694080000000     0.055470000000     0.00442104 
H132     H      0.197560000000     0.615930000000     0.971820000000     0.0622875  
H133     H      0.259490000000     0.839440000000     0.988890000000     0.040465   
H134     H      0.275450000000     0.762910000000     0.906190000000     0.0381889  
H135     H      0.188340000000     0.675200000000     0.913260000000     0.0620441  
H136     H      0.097840000000     0.653790000000     0.027590000000     0.140567   
H137     H      0.198890000000     0.283090000000     0.903730000000     0.0402173  
H138     H      0.120030000000     0.259600000000     0.981720000000     0.0429233  
H139     H      0.281500000000     0.195830000000     0.901600000000     0.00322407 
H140     H      0.260520000000     0.115770000000     0.980700000000     0.0571751  
H141     H      0.201310000000     0.339800000000     0.965110000000     0.0449338  
H142     H      0.176570000000     0.261630000000     0.043510000000     0.0414635  
H143     H      0.264760000000     0.172480000000     0.042170000000     0.0606332  
H144     H      0.366150000000     0.155070000000     0.937590000000     0.135499   
H145     H      0.781470000000     0.910370000000     0.697350000000     0.0407559  
H146     H      0.757490000000     0.990140000000     0.620150000000     0.0444843  
H147     H      0.692960000000     0.907080000000     0.780400000000    -0.000110555
H148     H      0.613720000000     0.985740000000     0.760780000000     0.066262   
H149     H      0.837710000000     0.972080000000     0.701140000000     0.0425419  
H150     H      0.758980000000     0.050330000000     0.678320000000     0.0405959  
H151     H      0.670250000000     0.047250000000     0.765760000000     0.0661479  
H152     H      0.687660000000     0.927470000000     0.877180000000     0.145667   
H153     H      0.279010000000     0.046080000000     0.757440000000     0.0398043  
H154     H      0.259000000000     0.967410000000     0.837050000000     0.0399897  
H155     H      0.190130000000     0.044250000000     0.674680000000     0.00208173 
H156     H      0.113630000000     0.963720000000     0.697690000000     0.0628659  
H157     H      0.337490000000     0.986490000000     0.755150000000     0.0438181  
H158     H      0.261330000000     0.906020000000     0.780050000000     0.0394561  
H159     H      0.172150000000     0.904010000000     0.694330000000     0.0617455  
H160     H      0.183550000000     0.020110000000     0.578870000000     0.147127   
H161     H      0.286810000000     0.908460000000     0.186380000000     0.0376023  
H162     H      0.262650000000     0.993660000000     0.115240000000     0.0401631  
H163     H      0.198300000000     0.899600000000     0.264900000000     0.00211662 
H164     H      0.120470000000     0.983180000000     0.257950000000     0.0685648  
H165     H      0.343820000000     0.969050000000     0.194730000000     0.0409328  
H166     H      0.266010000000     0.049590000000     0.177410000000     0.0396621  
H167     H      0.180390000000     0.041080000000     0.266960000000     0.064655   
H168     H      0.199840000000     0.906470000000     0.364650000000     0.145754   
H169     H      0.697740000000     0.913550000000     0.181770000000     0.0387615  
H170     H      0.621480000000     0.996450000000     0.198800000000     0.0395476  
H171     H      0.781510000000     0.914820000000     0.269760000000     0.00465119 
H172     H      0.760530000000     0.999120000000     0.344570000000     0.0566695  
H173     H      0.702300000000     0.970880000000     0.121060000000     0.042388   
H174     H      0.681210000000     0.054970000000     0.194880000000     0.0395571  
H175     H      0.766000000000     0.056580000000     0.283890000000     0.0595592  
H176     H      0.866130000000     0.953340000000     0.308630000000     0.140847   
H177     H      0.906920000000     0.278570000000     0.764480000000     0.0353217  
H178     H      0.990860000000     0.258360000000     0.838610000000     0.0412774  
H179     H      0.903340000000     0.190220000000     0.683360000000    -0.00101022 
H180     H      0.986710000000     0.114050000000     0.697960000000     0.0637213  
H181     H      0.965750000000     0.337560000000     0.758390000000     0.0408037  
H182     H      0.048240000000     0.261770000000     0.777710000000     0.043224   
H183     H      0.044870000000     0.173830000000     0.690650000000     0.0660333  
H184     H      0.917900000000     0.187850000000     0.585010000000     0.155825   
H185     H      0.908210000000     0.758110000000     0.677040000000     0.0399862  
H186     H      0.986010000000     0.837520000000     0.699490000000     0.0434693  
H187     H      0.908160000000     0.674490000000     0.765190000000     0.00369956 
H188     H      0.987780000000     0.697460000000     0.843990000000     0.064076   
H189     H      0.968980000000     0.755870000000     0.619700000000     0.0416583  
H190     H      0.047810000000     0.781150000000     0.697240000000     0.041379   
H191     H      0.048510000000     0.694030000000     0.786420000000     0.0635206  
H192     H      0.946820000000     0.590650000000     0.805230000000     0.136963   
H193     H      0.053660000000     0.695180000000     0.177070000000     0.0427914  
H194     H      0.972260000000     0.619080000000     0.198660000000     0.0480319  
H195     H      0.057360000000     0.777430000000     0.264500000000     0.00383207 
H196     H      0.976240000000     0.759040000000     0.343400000000     0.0571029  
H197     H      0.993730000000     0.699870000000     0.119050000000     0.0479299  
H198     H      0.913040000000     0.678180000000     0.196170000000     0.0419306  
H199     H      0.916140000000     0.765470000000     0.285450000000     0.0601514  
H200     H      0.023500000000     0.863090000000     0.305310000000     0.140908   
H201     H      0.902260000000     0.193460000000     0.280210000000     0.0427051  
H202     H      0.985750000000     0.119020000000     0.260220000000     0.0497359  
H203     H      0.899280000000     0.273610000000     0.192270000000     0.00275111 
H204     H      0.982840000000     0.259850000000     0.116110000000     0.0634118  
H205     H      0.960660000000     0.199110000000     0.339740000000     0.0499347  
H206     H      0.043640000000     0.179270000000     0.264560000000     0.0439508  
H207     H      0.040870000000     0.267410000000     0.176100000000     0.0606387  
H208     H      0.912850000000     0.372200000000     0.191800000000     0.149783   
N1       N      0.491210000000     0.279420000000     0.187140000000    -0.179416   
N2       N      0.462200000000     0.186910000000     0.276430000000    -0.159654   
N3       N      0.462880000000     0.687260000000     0.180810000000    -0.179558   
N4       N      0.497010000000     0.778130000000     0.270230000000    -0.158864   
N5       N      0.466160000000     0.770970000000     0.678380000000    -0.179979   
N6       N      0.494330000000     0.681220000000     0.770760000000    -0.158988   
N7       N      0.462040000000     0.180260000000     0.686740000000    -0.179388   
N8       N      0.490310000000     0.272770000000     0.776800000000    -0.158592   
N9       N      0.769010000000     0.277270000000     0.466010000000    -0.179838   
N10      N      0.677500000000     0.188150000000     0.497380000000    -0.159591   
N11      N      0.688440000000     0.780370000000     0.467510000000    -0.179003   
N12      N      0.777730000000     0.686300000000     0.492890000000    -0.158432   
N13      N      0.176490000000     0.267620000000     0.490180000000    -0.179068   
N14      N      0.269730000000     0.178810000000     0.461880000000    -0.158848   
N15      N      0.187940000000     0.676980000000     0.484740000000    -0.178966   
N16      N      0.278600000000     0.771060000000     0.462900000000    -0.158083   
N17      N      0.770980000000     0.468220000000     0.276480000000    -0.180123   
N18      N      0.681110000000     0.495660000000     0.184150000000    -0.157899   
N19      N      0.180210000000     0.464620000000     0.272000000000    -0.181124   
N20      N      0.272700000000     0.491730000000     0.181490000000    -0.157807   
N21      N      0.275440000000     0.457060000000     0.773720000000    -0.179968   
N22      N      0.183380000000     0.481510000000     0.682300000000    -0.15808    
N23      N      0.684240000000     0.467720000000     0.774860000000    -0.182951   
N24      N      0.775280000000     0.496790000000     0.684640000000    -0.159268   
N25      N      0.775750000000     0.774940000000     0.964660000000    -0.180662   
N26      N      0.681910000000     0.685840000000     0.988950000000    -0.159387   
N27      N      0.687070000000     0.278380000000     0.978210000000    -0.179014   
N28      N      0.777000000000     0.183430000000     0.998260000000    -0.160716   
N29      N      0.183230000000     0.773150000000     0.996480000000    -0.180655   
N30      N      0.272840000000     0.682650000000     0.963560000000    -0.15894    
N31      N      0.277860000000     0.273440000000     0.962360000000    -0.179605   
N32      N      0.185030000000     0.182560000000     0.985140000000    -0.158938   
N33      N      0.771830000000     0.966870000000     0.777910000000    -0.181158   
N34      N      0.680270000000     0.991360000000     0.685190000000    -0.158529   
N35      N      0.270610000000     0.986730000000     0.678760000000    -0.181536   
N36      N      0.181300000000     0.963110000000     0.772710000000    -0.160242   
N37      N      0.277320000000     0.959370000000     0.270650000000    -0.183649   
N38      N      0.186450000000     0.991520000000     0.181690000000    -0.160196   
N39      N      0.778570000000     0.970040000000     0.187990000000    -0.178969   
N40      N      0.685790000000     0.999900000000     0.276690000000    -0.161568   
N41      N      0.960990000000     0.270860000000     0.682020000000    -0.182568   
N42      N      0.991630000000     0.181130000000     0.773420000000    -0.159404   
N43      N      0.967140000000     0.679400000000     0.686230000000    -0.179848   
N44      N      0.990160000000     0.772770000000     0.776870000000    -0.157794   
N45      N      0.997730000000     0.776120000000     0.185860000000    -0.180488   
N46      N      0.970640000000     0.683920000000     0.276120000000    -0.158689   
N47      N      0.956930000000     0.275470000000     0.273040000000    -0.181708   
N48      N      0.988120000000     0.184380000000     0.183090000000    -0.158317   
O1       O      0.983440000000     0.155860000000     0.080260000000    -0.372778   
O2       O      0.984840000000     0.802500000000     0.082870000000    -0.37073    
O3       O      0.881160000000     0.976350000000     0.158090000000    -0.35662    
O4       O      0.083820000000     0.983440000000     0.154700000000    -0.370582   
O5       O      0.158680000000     0.983990000000     0.078910000000    -0.375516   
O6       O      0.804790000000     0.975130000000     0.084260000000    -0.377544   
O7       O      0.990010000000     0.878750000000     0.156590000000    -0.354542   
O8       O      0.982890000000     0.081240000000     0.156320000000    -0.370447   
O9       O      0.043980000000     0.916220000000     0.042580000000    -0.506903   
O10      O      0.917890000000     0.042490000000     0.043230000000    -0.506895   
O11      O      0.917130000000     0.915420000000     0.044680000000    -0.653897   
O12      O      0.043740000000     0.041830000000     0.041140000000    -0.653255   
O13      O      0.984200000000     0.801420000000     0.879570000000    -0.370067   
O14      O      0.984300000000     0.154880000000     0.876700000000    -0.379487   
O15      O      0.803040000000     0.877680000000     0.975440000000    -0.376867   
O16      O      0.156510000000     0.876340000000     0.986500000000    -0.377577   
O17      O      0.156850000000     0.080040000000     0.978050000000    -0.376747   
O18      O      0.803310000000     0.080540000000     0.987440000000    -0.373276   
O19      O      0.875570000000     0.973300000000     0.804110000000    -0.377027   
O20      O      0.079280000000     0.972670000000     0.801790000000    -0.373891   
O21      O      0.801840000000     0.975540000000     0.880600000000    -0.362372   
O22      O      0.155840000000     0.972960000000     0.875930000000    -0.380595   
O23      O      0.878470000000     0.803020000000     0.974940000000    -0.359188   
O24      O      0.879080000000     0.155340000000     0.986250000000    -0.378093   
O25      O      0.081910000000     0.155630000000     0.980540000000    -0.374662   
O26      O      0.080780000000     0.802000000000     0.986810000000    -0.355377   
O27      O      0.981250000000     0.875770000000     0.803280000000    -0.373537   
O28      O      0.983550000000     0.078770000000     0.802130000000    -0.377716   
O29      O      0.042830000000     0.041190000000     0.915050000000    -0.503156   
O30      O      0.916410000000     0.915560000000     0.918280000000    -0.50988    
O31      O      0.915540000000     0.042100000000     0.916270000000    -0.648299   
O32      O      0.042440000000     0.914990000000     0.916600000000    -0.653271   
O33      O      0.968280000000     0.301850000000     0.376210000000    -0.368808   
O34      O      0.977600000000     0.655080000000     0.378650000000    -0.379281   
O35      O      0.874340000000     0.475420000000     0.303020000000    -0.374213   
O36      O      0.077550000000     0.473500000000     0.301420000000    -0.361661   
O37      O      0.153560000000     0.471110000000     0.375650000000    -0.374224   
O38      O      0.800260000000     0.476970000000     0.379080000000    -0.358725   
O39      O      0.975150000000     0.580630000000     0.302440000000    -0.375325   
O40      O      0.968040000000     0.377920000000     0.302040000000    -0.361159   
O41      O      0.042100000000     0.540260000000     0.415530000000    -0.506206   
O42      O      0.913180000000     0.417260000000     0.416570000000    -0.512835   
O43      O      0.914730000000     0.543090000000     0.416680000000    -0.651418   
O44      O      0.038740000000     0.413140000000     0.414690000000    -0.654261   
O45      O      0.976150000000     0.653260000000     0.582650000000    -0.375965   
O46      O      0.968510000000     0.300130000000     0.579190000000    -0.359986   
O47      O      0.802890000000     0.583020000000     0.483790000000    -0.372914   
O48      O      0.156700000000     0.574650000000     0.479350000000    -0.357003   
O49      O      0.151160000000     0.371320000000     0.483450000000    -0.376956   
O50      O      0.797640000000     0.380020000000     0.475910000000    -0.374082   
O51      O      0.877680000000     0.485260000000     0.657260000000    -0.370834   
O52      O      0.080430000000     0.476170000000     0.654970000000    -0.373782   
O53      O      0.802200000000     0.485840000000     0.582130000000    -0.377895   
O54      O      0.155460000000     0.476570000000     0.579270000000    -0.371759   
O55      O      0.879930000000     0.656500000000     0.485770000000    -0.373095   
O56      O      0.872030000000     0.304450000000     0.472890000000    -0.355504   
O57      O      0.074160000000     0.298260000000     0.482580000000    -0.354523   
O58      O      0.083830000000     0.651880000000     0.481470000000    -0.378625   
O59      O      0.974590000000     0.576890000000     0.656490000000    -0.355388   
O60      O      0.971830000000     0.373920000000     0.655510000000    -0.380951   
O61      O      0.039880000000     0.412120000000     0.541710000000    -0.509639   
O62      O      0.917120000000     0.540650000000     0.542430000000    -0.509118   
O63      O      0.912280000000     0.414840000000     0.542790000000    -0.65523    
O64      O      0.042090000000     0.538510000000     0.542400000000    -0.651117   
O65      O      0.656450000000     0.990600000000     0.378930000000    -0.375017   
O66      O      0.304420000000     0.970880000000     0.373380000000    -0.364393   
O67      O      0.489740000000     0.881050000000     0.298310000000    -0.373765   
O68      O      0.471180000000     0.083830000000     0.302130000000    -0.376196   
O69      O      0.471600000000     0.157920000000     0.378740000000    -0.377113   
O70      O      0.488410000000     0.805130000000     0.373090000000    -0.374607   
O71      O      0.379740000000     0.972710000000     0.298500000000    -0.378864   
O72      O      0.582730000000     0.989860000000     0.301990000000    -0.378682   
O73      O      0.415140000000     0.042140000000     0.414290000000    -0.504732   
O74      O      0.543980000000     0.919380000000     0.414350000000    -0.508574   
O75      O      0.418670000000     0.915950000000     0.412340000000    -0.655894   
O76      O      0.540930000000     0.046060000000     0.416130000000    -0.648643   
O77      O      0.300400000000     0.978940000000     0.576050000000    -0.366249   
O78      O      0.653930000000     0.985220000000     0.581800000000    -0.371449   
O79      O      0.381140000000     0.800520000000     0.469280000000    -0.37138    
O80      O      0.372680000000     0.153930000000     0.473350000000    -0.376192   
O81      O      0.574980000000     0.159900000000     0.487350000000    -0.378427   
O82      O      0.584760000000     0.805610000000     0.473910000000    -0.375408   
O83      O      0.472710000000     0.874620000000     0.652720000000    -0.379122   
O84      O      0.470920000000     0.077880000000     0.656460000000    -0.353922   
O85      O      0.475510000000     0.801190000000     0.575980000000    -0.359256   
O86      O      0.468800000000     0.154540000000     0.582880000000    -0.377858   
O87      O      0.304230000000     0.874060000000     0.472850000000    -0.371481   
O88      O      0.657600000000     0.882860000000     0.473980000000    -0.357825   
O89      O      0.651160000000     0.085580000000     0.487500000000    -0.374832   
O90      O      0.299720000000     0.076600000000     0.468430000000    -0.371103   
O91      O      0.373900000000     0.979120000000     0.652760000000    -0.374753   
O92      O      0.577670000000     0.983120000000     0.656200000000    -0.371172   
O93      O      0.538500000000     0.043060000000     0.542740000000    -0.507635   
O94      O      0.415840000000     0.913620000000     0.539000000000    -0.508291   
O95      O      0.542690000000     0.916480000000     0.541480000000    -0.652903   
O96      O      0.412920000000     0.040250000000     0.540620000000    -0.65384    
O97      O      0.303750000000     0.376600000000     0.973460000000    -0.372629   
O98      O      0.656890000000     0.381110000000     0.980880000000    -0.358731   
O99      O      0.484740000000     0.301910000000     0.879510000000    -0.369761   
O100     O      0.484150000000     0.305140000000     0.083440000000    -0.376943   
O101     O      0.483510000000     0.381860000000     0.156910000000    -0.358423   
O102     O      0.483550000000     0.375990000000     0.802880000000    -0.37346    
O103     O      0.583360000000     0.304550000000     0.980740000000    -0.377008   
O104     O      0.380160000000     0.302880000000     0.973210000000    -0.358579   
O105     O      0.542670000000     0.418850000000     0.043410000000    -0.508005   
O106     O      0.417860000000     0.415790000000     0.916590000000    -0.509322   
O107     O      0.542960000000     0.417160000000     0.916980000000    -0.657058   
O108     O      0.415380000000     0.416400000000     0.042740000000    -0.652216   
O109     O      0.654130000000     0.583590000000     0.980420000000    -0.378911   
O110     O      0.301590000000     0.580180000000     0.971600000000    -0.372736   
O111     O      0.581450000000     0.474600000000     0.803010000000    -0.364918   
O112     O      0.578690000000     0.488310000000     0.155640000000    -0.369968   
O113     O      0.375860000000     0.484900000000     0.154960000000    -0.368367   
O114     O      0.378320000000     0.470010000000     0.800650000000    -0.378615   
O115     O      0.485470000000     0.655500000000     0.873940000000    -0.377102   
O116     O      0.470460000000     0.659090000000     0.077520000000    -0.374844   
O117     O      0.484780000000     0.578990000000     0.799780000000    -0.37544    
O118     O      0.471360000000     0.584290000000     0.152980000000    -0.354271   
O119     O      0.656670000000     0.478070000000     0.877880000000    -0.376543   
O120     O      0.303650000000     0.469830000000     0.876170000000    -0.355838   
O121     O      0.301370000000     0.483900000000     0.078820000000    -0.375594   
O122     O      0.654830000000     0.486160000000     0.081140000000    -0.370725   
O123     O      0.578820000000     0.658820000000     0.981690000000    -0.377141   
O124     O      0.375910000000     0.656460000000     0.970010000000    -0.378382   
O125     O      0.414880000000     0.543790000000     0.039700000000    -0.5093     
O126     O      0.541990000000     0.543480000000     0.914280000000    -0.505907   
O127     O      0.415310000000     0.542190000000     0.913130000000    -0.65095    
O128     O      0.540310000000     0.545140000000     0.040980000000    -0.654636   
O129     O      0.486030000000     0.357060000000     0.268570000000    -0.271909   
O130     O      0.460360000000     0.610400000000     0.263350000000    -0.271059   
O131     O      0.470290000000     0.689750000000     0.600420000000    -0.272322   
O132     O      0.466240000000     0.102530000000     0.768110000000    -0.271382   
O133     O      0.845580000000     0.194470000000     0.464100000000    -0.273255   
O134     O      0.769360000000     0.857610000000     0.477760000000    -0.273474   
O135     O      0.099020000000     0.186530000000     0.481790000000    -0.267778   
O136     O      0.268270000000     0.599520000000     0.471970000000    -0.272305   
O137     O      0.689310000000     0.470190000000     0.354120000000    -0.272215   
O138     O      0.103110000000     0.465960000000     0.189550000000    -0.277031   
O139     O      0.194090000000     0.451440000000     0.851570000000    -0.271361   
O140     O      0.607290000000     0.464920000000     0.692030000000    -0.277772   
O141     O      0.852250000000     0.692400000000     0.967600000000    -0.272434   
O142     O      0.767740000000     0.354960000000     0.993210000000    -0.272089   
O143     O      0.105520000000     0.691750000000     0.002120000000    -0.269863   
O144     O      0.355430000000     0.191930000000     0.963570000000    -0.273874   
O145     O      0.689940000000     0.968370000000     0.855490000000    -0.278882   
O146     O      0.188430000000     0.980120000000     0.601810000000    -0.277214   
O147     O      0.195130000000     0.949350000000     0.347740000000    -0.277072   
O148     O      0.855890000000     0.976280000000     0.269650000000    -0.268915   
O149     O      0.959850000000     0.188560000000     0.604670000000    -0.275198   
O150     O      0.971880000000     0.602020000000     0.767900000000    -0.272582   
O151     O      0.998110000000     0.853530000000     0.267700000000    -0.272826   
O152     O      0.954870000000     0.352730000000     0.190650000000    -0.281254   
Zr1      Zr     0.981610000000     0.979580000000     0.105260000000     1.44001    
Zr2      Zr     0.980010000000     0.853280000000     0.980950000000     1.43919    
Zr3      Zr     0.980360000000     0.104320000000     0.978630000000     1.42108    
Zr4      Zr     0.854340000000     0.978940000000     0.981540000000     1.42246    
Zr5      Zr     0.106050000000     0.978360000000     0.978210000000     1.42658    
Zr6      Zr     0.978390000000     0.977670000000     0.853920000000     1.41969    
Zr7      Zr     0.976490000000     0.478900000000     0.353380000000     1.43221    
Zr8      Zr     0.980450000000     0.603370000000     0.480050000000     1.42275    
Zr9      Zr     0.974430000000     0.352270000000     0.478350000000     1.4437     
Zr10     Zr     0.851740000000     0.480350000000     0.480070000000     1.44034    
Zr11     Zr     0.103080000000     0.474490000000     0.478110000000     1.42754    
Zr12     Zr     0.978130000000     0.475900000000     0.604950000000     1.43261    
Zr13     Zr     0.480530000000     0.981710000000     0.351270000000     1.42431    
Zr14     Zr     0.353410000000     0.976470000000     0.475420000000     1.43733    
Zr15     Zr     0.603680000000     0.982900000000     0.479590000000     1.4289     
Zr16     Zr     0.481770000000     0.854040000000     0.475630000000     1.43191    
Zr17     Zr     0.475220000000     0.105580000000     0.479780000000     1.4275     
Zr18     Zr     0.476460000000     0.977390000000     0.603580000000     1.42791    
Zr19     Zr     0.480970000000     0.354460000000     0.980730000000     1.43187    
Zr20     Zr     0.604350000000     0.481860000000     0.979250000000     1.4344     
Zr21     Zr     0.353550000000     0.478890000000     0.977600000000     1.42963    
Zr22     Zr     0.479670000000     0.478300000000     0.852610000000     1.43305    
Zr23     Zr     0.477580000000     0.482120000000     0.103920000000     1.43946    
Zr24     Zr     0.477710000000     0.606420000000     0.976240000000     1.42267    


