data_structure

_audit_creation_method RASPA-1.0
_audit_creation_date 2023-5-19
_audit_author_name 'Poobodin Mano'

_cell_length_a    21.3957
_cell_length_b    21.4436
_cell_length_c    21.4556
_cell_angle_alpha 90
_cell_angle_beta  90
_cell_angle_gamma 90
_cell_volume      9843.85

_symmetry_cell_setting          triclinic
_symmetry_space_group_name_Hall 'P 1'
_symmetry_space_group_name_H-M  'P 1'
_symmetry_Int_Tables_number     1

_symmetry_equiv_pos_as_xyz 'x,y,z'

loop_
_atom_site_label
_atom_site_type_symbol
_atom_site_fract_x
_atom_site_fract_y
_atom_site_fract_z
_atom_site_charge
C1       C      0.982050000000     0.148140000000     0.125980000000     0.388563   
C2       C      0.988950000000     0.829860000000     0.142450000000     0.392778   
C3       C      0.819930000000     0.991570000000     0.134340000000     0.388481   
C4       C      0.138910000000     0.995380000000     0.135930000000     0.3889     
C5       C      0.986440000000     0.810700000000     0.827010000000     0.396399   
C6       C      0.986760000000     0.129140000000     0.807180000000     0.397069   
C7       C      0.822630000000     0.820640000000     0.973860000000     0.392719   
C8       C      0.141990000000     0.822430000000     0.992700000000     0.39296    
C9       C      0.138460000000     0.140440000000     0.959790000000     0.398269   
C10      C      0.819940000000     0.138020000000     0.962320000000     0.391323   
C11      C      0.822080000000     0.967940000000     0.815630000000     0.3879     
C12      C      0.140820000000     0.980050000000     0.817810000000     0.394359   
C13      C      0.969690000000     0.332170000000     0.307260000000     0.395998   
C14      C      0.981420000000     0.649710000000     0.328200000000     0.396289   
C15      C      0.820240000000     0.494470000000     0.317830000000     0.391974   
C16      C      0.139280000000     0.495070000000     0.320840000000     0.392368   
C17      C      0.968050000000     0.630990000000     0.643870000000     0.394058   
C18      C      0.971710000000     0.312860000000     0.626710000000     0.389596   
C19      C      0.821980000000     0.642390000000     0.479460000000     0.392936   
C20      C      0.141320000000     0.635380000000     0.494200000000     0.396045   
C21      C      0.135620000000     0.318050000000     0.467350000000     0.388185   
C22      C      0.815560000000     0.325240000000     0.464920000000     0.396181   
C23      C      0.816870000000     0.467410000000     0.633670000000     0.392405   
C24      C      0.135000000000     0.467840000000     0.639320000000     0.393243   
C25      C      0.635030000000     0.974920000000     0.315770000000     0.393336   
C26      C      0.315460000000     0.972570000000     0.320800000000     0.396658   
C27      C      0.485640000000     0.817940000000     0.320370000000     0.398066   
C28      C      0.461700000000     0.137010000000     0.319520000000     0.397157   
C29      C      0.321640000000     0.961390000000     0.639080000000     0.401395   
C30      C      0.639320000000     0.990880000000     0.635750000000     0.395414   
C31      C      0.321430000000     0.816130000000     0.474040000000     0.390994   
C32      C      0.314590000000     0.134400000000     0.487750000000     0.392091   
C33      C      0.633750000000     0.139940000000     0.464950000000     0.389822   
C34      C      0.640310000000     0.822610000000     0.490720000000     0.396121   
C35      C      0.475450000000     0.819560000000     0.638040000000     0.390529   
C36      C      0.470360000000     0.137170000000     0.636700000000     0.39079    
C37      C      0.319720000000     0.318810000000     0.985350000000     0.390469   
C38      C      0.638680000000     0.316550000000     0.988110000000     0.398428   
C39      C      0.481290000000     0.314420000000     0.823970000000     0.397559   
C40      C      0.484610000000     0.318910000000     0.140990000000     0.391379   
C41      C      0.642140000000     0.633770000000     0.980610000000     0.395819   
C42      C      0.322060000000     0.638270000000     0.974410000000     0.38685    
C43      C      0.640160000000     0.475750000000     0.821720000000     0.397842   
C44      C      0.640260000000     0.469150000000     0.138900000000     0.400199   
C45      C      0.321860000000     0.475960000000     0.140750000000     0.39594    
C46      C      0.321440000000     0.464490000000     0.821170000000     0.390305   
C47      C      0.488040000000     0.633110000000     0.817430000000     0.3953     
C48      C      0.472250000000     0.638280000000     0.136050000000     0.392669   
C49      C      0.498510000000     0.207740000000     0.171690000000    -0.0146317  
C50      C      0.486470000000     0.290680000000     0.253270000000    -0.0429134  
C51      C      0.453000000000     0.165960000000     0.207860000000    -0.0125923  
C52      C      0.438510000000     0.249560000000     0.286770000000     0.0903824  
C53      C      0.460300000000     0.749950000000     0.165720000000    -0.0143905  
C54      C      0.452280000000     0.666370000000     0.246250000000    -0.0413639  
C55      C      0.501230000000     0.788460000000     0.209940000000    -0.0122627  
C56      C      0.494990000000     0.703340000000     0.289890000000     0.0898305  
C57      C      0.467320000000     0.788700000000     0.749590000000    -0.0142309  
C58      C      0.457240000000     0.708680000000     0.665400000000    -0.0425203  
C59      C      0.507150000000     0.743050000000     0.787580000000    -0.013138   
C60      C      0.498420000000     0.663630000000     0.702730000000     0.0898021  
C61      C      0.461630000000     0.248520000000     0.667420000000    -0.0135781  
C62      C      0.443150000000     0.164360000000     0.745450000000    -0.0413175  
C63      C      0.501040000000     0.284060000000     0.714900000000    -0.0122644  
C64      C      0.481560000000     0.199700000000     0.794270000000     0.0900535  
C65      C      0.743410000000     0.169750000000     0.443010000000    -0.0130798  
C66      C      0.658650000000     0.248550000000     0.434880000000    -0.0405645  
C67      C      0.784810000000     0.215860000000     0.477500000000    -0.0118901  
C68      C      0.700820000000     0.298760000000     0.464070000000     0.0900486  
C69      C      0.792250000000     0.753600000000     0.464870000000    -0.0142939  
C70      C      0.709910000000     0.670410000000     0.474400000000    -0.0425645  
C71      C      0.752250000000     0.796550000000     0.505880000000    -0.0120138  
C72      C      0.674000000000     0.712070000000     0.519520000000     0.090823   
C73      C      0.166020000000     0.207220000000     0.448720000000    -0.015338   
C74      C      0.247930000000     0.288750000000     0.467890000000    -0.04284    
C75      C      0.201900000000     0.162000000000     0.491460000000    -0.0121775  
C76      C      0.279440000000     0.245080000000     0.514690000000     0.089848   
C77      C      0.210280000000     0.784570000000     0.461660000000    -0.0136374  
C78      C      0.294690000000     0.703660000000     0.466230000000    -0.0422758  
C79      C      0.171200000000     0.746200000000     0.507380000000    -0.0121794  
C80      C      0.255450000000     0.666230000000     0.512870000000     0.0904041  
C81      C      0.708710000000     0.507570000000     0.287220000000    -0.0149313  
C82      C      0.792330000000     0.500800000000     0.205750000000    -0.042447   
C83      C      0.669300000000     0.460540000000     0.250490000000    -0.011875   
C84      C      0.753970000000     0.451340000000     0.171420000000     0.0907509  
C85      C      0.170970000000     0.513210000000     0.210590000000    -0.0143222  
C86      C      0.251650000000     0.506820000000     0.294390000000    -0.041789   
C87      C      0.210050000000     0.469480000000     0.169750000000    -0.0125369  
C88      C      0.289830000000     0.461360000000     0.254640000000     0.0901436  
C89      C      0.292320000000     0.447330000000     0.710490000000    -0.0134484  
C90      C      0.213260000000     0.433660000000     0.794200000000    -0.0410871  
C91      C      0.244760000000     0.481630000000     0.670080000000    -0.0124908  
C92      C      0.162480000000     0.464200000000     0.753660000000     0.0899186  
C93      C      0.704910000000     0.459060000000     0.663480000000    -0.0133511  
C94      C      0.788460000000     0.434770000000     0.740580000000    -0.0407598  
C95      C      0.669920000000     0.496750000000     0.712820000000    -0.011878   
C96      C      0.754470000000     0.471920000000     0.791210000000     0.0894932  
C97      C      0.711780000000     0.789580000000     0.960120000000    -0.0125923  
C98      C      0.796880000000     0.710700000000     0.950640000000    -0.0401662  
C99      C      0.672440000000     0.743310000000     0.997230000000    -0.0149381  
C100     C      0.757110000000     0.662260000000     0.985230000000     0.0876451  
C101     C      0.788080000000     0.248870000000     0.947970000000    -0.0136962  
C102     C      0.707290000000     0.164880000000     0.955060000000    -0.044648   
C103     C      0.750810000000     0.288170000000     0.994670000000    -0.014821   
C104     C      0.671940000000     0.203020000000     0.003990000000     0.0937173  
C105     C      0.291930000000     0.749520000000     0.958300000000    -0.0178164  
C106     C      0.209740000000     0.667460000000     0.973170000000    -0.0450339  
C107     C      0.254340000000     0.793940000000     0.000340000000    -0.00853491 
C108     C      0.175590000000     0.710750000000     0.018620000000     0.0924346  
C109     C      0.288230000000     0.207390000000     0.994610000000    -0.0171295  
C110     C      0.207040000000     0.291650000000     0.990260000000    -0.0450946  
C111     C      0.250140000000     0.169170000000     0.947720000000    -0.0114149  
C112     C      0.171000000000     0.253900000000     0.941480000000     0.0914474  
C113     C      0.790920000000     0.955680000000     0.704140000000    -0.0179553  
C114     C      0.709500000000     0.961990000000     0.787770000000    -0.0452869  
C115     C      0.751730000000     0.000050000000     0.663520000000    -0.00790986 
C116     C      0.673270000000     0.009550000000     0.748650000000     0.0932113  
C117     C      0.171070000000     0.988930000000     0.706220000000    -0.0162693  
C118     C      0.252940000000     0.989680000000     0.789990000000    -0.0450963  
C119     C      0.211070000000     0.943360000000     0.668470000000    -0.0115919  
C120     C      0.290940000000     0.942160000000     0.752700000000     0.0915593  
C121     C      0.250430000000     0.005180000000     0.167790000000    -0.0100423  
C122     C      0.165540000000     0.011840000000     0.247390000000    -0.0401952  
C123     C      0.286210000000     0.959840000000     0.209830000000    -0.0145677  
C124     C      0.200490000000     0.965270000000     0.288870000000     0.0888699  
C125     C      0.788570000000     0.005690000000     0.245330000000    -0.00954117 
C126     C      0.707790000000     0.004780000000     0.161390000000    -0.0374564  
C127     C      0.746440000000     0.964490000000     0.285980000000    -0.0159021  
C128     C      0.666080000000     0.962390000000     0.201300000000     0.0873343  
C129     C      0.958100000000     0.279830000000     0.736630000000    -0.0167554  
C130     C      0.959330000000     0.200240000000     0.651430000000    -0.0439815  
C131     C      0.001240000000     0.238850000000     0.775460000000    -0.00658461 
C132     C      0.000320000000     0.157430000000     0.692040000000     0.0934104  
C133     C      0.955120000000     0.741200000000     0.676680000000    -0.0155718  
C134     C      0.950960000000     0.656010000000     0.755810000000    -0.0409913  
C135     C      0.000100000000     0.777640000000     0.717760000000    -0.0072601  
C136     C      0.992560000000     0.694700000000     0.799870000000     0.0876709  
C137     C      0.003070000000     0.719940000000     0.174830000000    -0.00825118 
C138     C      0.011830000000     0.805450000000     0.253250000000    -0.0380846  
C139     C      0.963410000000     0.682220000000     0.219800000000    -0.0145944  
C140     C      0.976820000000     0.765310000000     0.301530000000     0.0867825  
C141     C      0.993920000000     0.181150000000     0.236080000000    -0.0159254  
C142     C      0.994460000000     0.260810000000     0.150760000000    -0.0436507  
C143     C      0.951630000000     0.223160000000     0.274770000000    -0.0115611  
C144     C      0.955050000000     0.304780000000     0.191890000000     0.0896652  
H1       H      0.891010000000     0.894590000000     0.069520000000     0.206577   
H2       H      0.068660000000     0.075440000000     0.059520000000     0.209816   
H3       H      0.891490000000     0.063160000000     0.880330000000     0.20888    
H4       H      0.073110000000     0.886880000000     0.892340000000     0.208476   
H5       H      0.891980000000     0.575940000000     0.392430000000     0.213617   
H6       H      0.067640000000     0.395330000000     0.382930000000     0.206314   
H7       H      0.887100000000     0.387600000000     0.558790000000     0.212004   
H8       H      0.067200000000     0.562930000000     0.573310000000     0.209433   
H9       H      0.389770000000     0.886800000000     0.390010000000     0.210497   
H10      H      0.562920000000     0.067960000000     0.386360000000     0.207305   
H11      H      0.569660000000     0.892130000000     0.568320000000     0.209872   
H12      H      0.387100000000     0.064160000000     0.568840000000     0.210105   
H13      H      0.569750000000     0.385010000000     0.892630000000     0.209409   
H14      H      0.390970000000     0.389300000000     0.070950000000     0.211102   
H15      H      0.391510000000     0.564810000000     0.888500000000     0.205502   
H16      H      0.570290000000     0.566840000000     0.068930000000     0.207334   
H17      H      0.405290000000     0.173400000000     0.188630000000     0.0367443  
H18      H      0.493640000000     0.197430000000     0.121200000000     0.0383789  
H19      H      0.392360000000     0.260220000000     0.265200000000     0.0184078  
H20      H      0.474460000000     0.340460000000     0.261380000000     0.0501433  
H21      H      0.465730000000     0.116560000000     0.198820000000     0.0389114  
H22      H      0.546900000000     0.194930000000     0.185600000000     0.0366864  
H23      H      0.533410000000     0.282030000000     0.273850000000     0.0460957  
H24      H      0.397330000000     0.245230000000     0.374760000000     0.0944076  
H25      H      0.477430000000     0.263910000000     0.375760000000     0.0917626  
H26      H      0.550980000000     0.778760000000     0.198470000000     0.0361245  
H27      H      0.474460000000     0.760230000000     0.116950000000     0.0402473  
H28      H      0.543770000000     0.688130000000     0.280050000000     0.0185669  
H29      H      0.458450000000     0.615790000000     0.255790000000     0.050479   
H30      H      0.492860000000     0.838580000000     0.199910000000     0.0381403  
H31      H      0.410980000000     0.765270000000     0.171500000000     0.0385887  
H32      H      0.402840000000     0.678230000000     0.257240000000     0.04519    
H33      H      0.516250000000     0.694920000000     0.384880000000     0.0907603  
H34      H      0.435860000000     0.702190000000     0.368420000000     0.0921553  
H35      H      0.557170000000     0.752830000000     0.777330000000     0.0369909  
H36      H      0.483280000000     0.836920000000     0.759930000000     0.0365608  
H37      H      0.547560000000     0.672280000000     0.687910000000     0.0179728  
H38      H      0.464380000000     0.699430000000     0.614910000000     0.0518984  
H39      H      0.499670000000     0.753430000000     0.837750000000     0.0408772  
H40      H      0.417990000000     0.784580000000     0.765410000000     0.0367943  
H41      H      0.407370000000     0.698550000000     0.676100000000     0.046825   
H42      H      0.517320000000     0.568060000000     0.695260000000     0.0936507  
H43      H      0.437300000000     0.586730000000     0.700470000000     0.0924927  
H44      H      0.550850000000     0.271110000000     0.707610000000     0.0368855  
H45      H      0.479720000000     0.258860000000     0.619960000000     0.0392561  
H46      H      0.530190000000     0.181310000000     0.791900000000     0.0168504  
H47      H      0.447280000000     0.113530000000     0.754800000000     0.0489982  
H48      H      0.496840000000     0.334610000000     0.704410000000     0.0408184  
H49      H      0.412750000000     0.265990000000     0.670170000000     0.0366697  
H50      H      0.393020000000     0.176950000000     0.751340000000     0.0444709  
H51      H      0.488560000000     0.187900000000     0.891110000000     0.0888042  
H52      H      0.413300000000     0.207730000000     0.864570000000     0.0952324  
H53      H      0.778760000000     0.208360000000     0.528440000000     0.037586   
H54      H      0.755610000000     0.121940000000     0.458880000000     0.0405164  
H55      H      0.686550000000     0.303720000000     0.513740000000     0.0181563  
H56      H      0.609360000000     0.259180000000     0.447420000000     0.0494832  
H57      H      0.834120000000     0.204270000000     0.466010000000     0.0403314  
H58      H      0.754040000000     0.172820000000     0.392340000000     0.0371909  
H59      H      0.662100000000     0.251850000000     0.383190000000     0.0449062  
H60      H      0.688800000000     0.395970000000     0.461030000000     0.0918011  
H61      H      0.713780000000     0.362630000000     0.390640000000     0.0961651  
H62      H      0.768700000000     0.791850000000     0.554840000000     0.0360468  
H63      H      0.842370000000     0.764060000000     0.473580000000     0.0391636  
H64      H      0.694120000000     0.703490000000     0.566660000000     0.0201246  
H65      H      0.701270000000     0.620920000000     0.487210000000     0.0529738  
H66      H      0.761050000000     0.845490000000     0.491360000000     0.0398518  
H67      H      0.782390000000     0.764980000000     0.415270000000     0.0375717  
H68      H      0.691520000000     0.677830000000     0.426460000000     0.046121   
H69      H      0.583840000000     0.715840000000     0.557190000000     0.0941278  
H70      H      0.586530000000     0.694170000000     0.478070000000     0.0910289  
H71      H      0.180960000000     0.164630000000     0.538840000000     0.0373335  
H72      H      0.115240000000     0.197020000000     0.452420000000     0.040712   
H73      H      0.255280000000     0.252630000000     0.560080000000     0.0206402  
H74      H      0.256120000000     0.337760000000     0.482650000000     0.0531801  
H75      H      0.194370000000     0.113850000000     0.473830000000     0.0385057  
H76      H      0.180240000000     0.197570000000     0.399810000000     0.0365798  
H77      H      0.270140000000     0.282230000000     0.421450000000     0.0455887  
H78      H      0.365800000000     0.237530000000     0.559460000000     0.0938603  
H79      H      0.370380000000     0.263590000000     0.482000000000     0.0917268  
H80      H      0.181650000000     0.762800000000     0.555390000000     0.0367337  
H81      H      0.199410000000     0.834750000000     0.468650000000     0.0386132  
H82      H      0.268270000000     0.683700000000     0.560070000000     0.0190152  
H83      H      0.345040000000     0.695520000000     0.476120000000     0.0507714  
H84      H      0.121080000000     0.756090000000     0.498220000000     0.0388921  
H85      H      0.195730000000     0.772020000000     0.413500000000     0.03667    
H86      H      0.284960000000     0.686050000000     0.418430000000     0.044466   
H87      H      0.254580000000     0.574800000000     0.546840000000     0.0924642  
H88      H      0.266110000000     0.580700000000     0.465810000000     0.0944409  
H89      H      0.679200000000     0.413180000000     0.269200000000     0.0372385  
H90      H      0.698420000000     0.502150000000     0.337690000000     0.0398741  
H91      H      0.767060000000     0.405530000000     0.192170000000     0.020666   
H92      H      0.842830000000     0.492050000000     0.197290000000     0.0503065  
H93      H      0.619180000000     0.470500000000     0.259590000000     0.0406955  
H94      H      0.693840000000     0.555280000000     0.273330000000     0.0369028  
H95      H      0.780790000000     0.547440000000     0.186130000000     0.0443092  
H96      H      0.753100000000     0.411480000000     0.082470000000     0.09714    
H97      H      0.765840000000     0.492590000000     0.083170000000     0.0902519  
H98      H      0.192930000000     0.421040000000     0.177010000000     0.0352358  
H99      H      0.120760000000     0.506210000000     0.199370000000     0.0403289  
H100     H      0.273140000000     0.413630000000     0.266590000000     0.0180811  
H101     H      0.260060000000     0.496520000000     0.344470000000     0.0510572  
H102     H      0.201030000000     0.481720000000     0.120250000000     0.041521   
H103     H      0.183150000000     0.562080000000     0.198180000000     0.0402236  
H104     H      0.268560000000     0.555050000000     0.285280000000     0.0460894  
H105     H      0.381630000000     0.427490000000     0.257810000000     0.0939276  
H106     H      0.375320000000     0.509300000000     0.263340000000     0.0943804  
H107     H      0.251150000000     0.532620000000     0.677140000000     0.0343031  
H108     H      0.339630000000     0.465630000000     0.699360000000     0.0391634  
H109     H      0.157580000000     0.513370000000     0.769640000000     0.017602   
H110     H      0.202280000000     0.443280000000     0.843930000000     0.0531809  
H111     H      0.256360000000     0.471520000000     0.620610000000     0.0391732  
H112     H      0.291410000000     0.397020000000     0.697850000000     0.039887   
H113     H      0.210810000000     0.382170000000     0.787930000000     0.0485444  
H114     H      0.065120000000     0.460490000000     0.765920000000     0.0921624  
H115     H      0.098760000000     0.390740000000     0.739350000000     0.0964534  
H116     H      0.683170000000     0.546600000000     0.707330000000     0.0388883  
H117     H      0.695130000000     0.479630000000     0.616930000000     0.0403177  
H118     H      0.774590000000     0.519820000000     0.791350000000     0.0195401  
H119     H      0.839510000000     0.436430000000     0.750090000000     0.0521942  
H120     H      0.619130000000     0.493370000000     0.702610000000     0.0389004  
H121     H      0.686410000000     0.410580000000     0.663740000000     0.0366461  
H122     H      0.773950000000     0.385030000000     0.744040000000     0.0439067  
H123     H      0.768120000000     0.473560000000     0.888140000000     0.0895866  
H124     H      0.742260000000     0.401530000000     0.858650000000     0.0904246  
H125     H      0.681160000000     0.751510000000     0.047680000000     0.0374356  
H126     H      0.700310000000     0.837460000000     0.976340000000     0.0399285  
H127     H      0.771790000000     0.663240000000     0.035020000000     0.017928   
H128     H      0.846880000000     0.701040000000     0.960880000000     0.0491408  
H129     H      0.622470000000     0.754260000000     0.988370000000     0.0403997  
H130     H      0.698410000000     0.786110000000     0.910140000000     0.0394117  
H131     H      0.790240000000     0.704300000000     0.899570000000     0.0464238  
H132     H      0.768450000000     0.565180000000     0.991550000000     0.086716   
H133     H      0.750810000000     0.592670000000     0.916300000000     0.0950057  
H134     H      0.769750000000     0.279010000000     0.042080000000     0.039919   
H135     H      0.838570000000     0.259700000000     0.953340000000     0.0401632  
H136     H      0.692080000000     0.190090000000     0.050090000000     0.020966   
H137     H      0.699120000000     0.114450000000     0.963810000000     0.0536626  
H138     H      0.759510000000     0.338120000000     0.984070000000     0.0372237  
H139     H      0.773970000000     0.263120000000     0.900150000000     0.0348828  
H140     H      0.687920000000     0.176020000000     0.908230000000     0.0450366  
H141     H      0.582300000000     0.202320000000     0.042770000000     0.0961584  
H142     H      0.584040000000     0.191840000000     0.961400000000     0.0894624  
H143     H      0.273170000000     0.790140000000     0.048520000000     0.0375701  
H144     H      0.342480000000     0.759810000000     0.964180000000     0.0411071  
H145     H      0.196820000000     0.702500000000     0.065320000000     0.0207599  
H146     H      0.201370000000     0.618350000000     0.987550000000     0.0527972  
H147     H      0.262970000000     0.842430000000     0.984260000000     0.0381691  
H148     H      0.279630000000     0.759920000000     0.909030000000     0.0371744  
H149     H      0.189520000000     0.673760000000     0.925810000000     0.0453803  
H150     H      0.086900000000     0.715600000000     0.059000000000     0.097182   
H151     H      0.086810000000     0.694830000000     0.979720000000     0.08977    
H152     H      0.267780000000     0.180070000000     0.900170000000     0.0367608  
H153     H      0.338620000000     0.196900000000     0.987740000000     0.0391684  
H154     H      0.190450000000     0.267310000000     0.895210000000     0.0202315  
H155     H      0.198910000000     0.342130000000     0.981710000000     0.053184   
H156     H      0.259420000000     0.118930000000     0.956220000000     0.0406438  
H157     H      0.275320000000     0.191820000000     0.042340000000     0.0386899  
H158     H      0.188090000000     0.280410000000     0.037230000000     0.0460675  
H159     H      0.080690000000     0.254130000000     0.904290000000     0.0962658  
H160     H      0.083730000000     0.265150000000     0.985540000000     0.0925761  
H161     H      0.769340000000     0.048290000000     0.670920000000     0.0354819  
H162     H      0.841180000000     0.963410000000     0.693660000000     0.0388975  
H163     H      0.692960000000     0.056200000000     0.760390000000     0.0190186  
H164     H      0.701030000000     0.971730000000     0.837950000000     0.0530545  
H165     H      0.760240000000     0.988040000000     0.613880000000     0.0379855  
H166     H      0.779400000000     0.906990000000     0.690460000000     0.0384641  
H167     H      0.690920000000     0.914600000000     0.777650000000     0.0464102  
H168     H      0.582970000000     0.047120000000     0.748210000000     0.0963358  
H169     H      0.585950000000     0.966270000000     0.762360000000     0.0908739  
H170     H      0.195920000000     0.895140000000     0.680220000000     0.0363222  
H171     H      0.121020000000     0.979520000000     0.696140000000     0.0385078  
H172     H      0.273660000000     0.895200000000     0.766750000000     0.0184495  
H173     H      0.261770000000     0.982220000000     0.840500000000     0.0522589  
H174     H      0.201060000000     0.950680000000     0.618220000000     0.0398798  
H175     H      0.181580000000     0.037040000000     0.689920000000     0.0396549  
H176     H      0.269510000000     0.037380000000     0.777980000000     0.0475345  
H177     H      0.382980000000     0.909400000000     0.751890000000     0.0966963  
H178     H      0.376070000000     0.990320000000     0.763830000000     0.0916415  
H179     H      0.273550000000     0.911530000000     0.195780000000     0.0378654  
H180     H      0.261270000000     0.994100000000     0.118370000000     0.038797   
H181     H      0.183960000000     0.917920000000     0.275300000000     0.0197163  
H182     H      0.114500000000     0.007020000000     0.255750000000     0.0533321  
H183     H      0.336920000000     0.965690000000     0.200420000000     0.0405719  
H184     H      0.267670000000     0.053170000000     0.177350000000     0.0373287  
H185     H      0.179150000000     0.059920000000     0.261420000000     0.0449337  
H186     H      0.193460000000     0.938140000000     0.382380000000     0.0924132  
H187     H      0.196800000000     0.019420000000     0.370670000000     0.0955513  
H188     H      0.760390000000     0.915060000000     0.278670000000     0.0381219  
H189     H      0.838120000000     0.994800000000     0.256380000000     0.0383061  
H190     H      0.678500000000     0.913490000000     0.188910000000     0.0191927  
H191     H      0.698940000000     0.994420000000     0.111400000000     0.0514079  
H192     H      0.756240000000     0.976010000000     0.335500000000     0.0404507  
H193     H      0.780120000000     0.055220000000     0.258230000000     0.0375003  
H194     H      0.693970000000     0.054120000000     0.169680000000     0.046038   
H195     H      0.571950000000     0.935910000000     0.196340000000     0.0934868  
H196     H      0.584620000000     0.017120000000     0.195570000000     0.0935405  
H197     H      0.050390000000     0.252190000000     0.765000000000     0.03641    
H198     H      0.967550000000     0.329370000000     0.748530000000     0.0399095  
H199     H      0.049740000000     0.167550000000     0.679260000000     0.019155   
H200     H      0.971390000000     0.192300000000     0.601650000000     0.0518441  
H201     H      0.992660000000     0.249880000000     0.825290000000     0.0363996  
H202     H      0.908960000000     0.269490000000     0.750080000000     0.0373311  
H203     H      0.909520000000     0.186720000000     0.657800000000     0.0445332  
H204     H      0.023100000000     0.062560000000     0.688160000000     0.0962548  
H205     H      0.942380000000     0.078260000000     0.689250000000     0.0927622  
H206     H      0.048630000000     0.764040000000     0.705040000000     0.0350271  
H207     H      0.964910000000     0.752890000000     0.627180000000     0.0405022  
H208     H      0.041500000000     0.678760000000     0.792250000000     0.0179136  
H209     H      0.960250000000     0.605670000000     0.764030000000     0.0514698  
H210     H      0.994930000000     0.827920000000     0.706450000000     0.0376502  
H211     H      0.906680000000     0.756790000000     0.687300000000     0.0406079  
H212     H      0.901140000000     0.664790000000     0.767860000000     0.0475143  
H213     H      0.010800000000     0.688620000000     0.895510000000     0.0910038  
H214     H      0.931480000000     0.698440000000     0.876470000000     0.0954404  
H215     H      0.913430000000     0.693800000000     0.211390000000     0.036945   
H216     H      0.988480000000     0.707960000000     0.126590000000     0.036418   
H217     H      0.927000000000     0.780310000000     0.300480000000     0.0171162  
H218     H      0.000940000000     0.855340000000     0.262300000000     0.05223    
H219     H      0.969690000000     0.632170000000     0.208010000000     0.0411179  
H220     H      0.052760000000     0.705750000000     0.180510000000     0.0377883  
H221     H      0.063010000000     0.799380000000     0.260370000000     0.0472317  
H222     H      0.969940000000     0.773940000000     0.398640000000     0.0907996  
H223     H      0.045730000000     0.758350000000     0.371100000000     0.0954153  
H224     H      0.902220000000     0.211390000000     0.263660000000     0.0393153  
H225     H      0.983040000000     0.131870000000     0.247880000000     0.0414539  
H226     H      0.905270000000     0.296260000000     0.179290000000     0.0202319  
H227     H      0.981820000000     0.268900000000     0.101140000000     0.051099   
H228     H      0.959210000000     0.211600000000     0.324650000000     0.0405096  
H229     H      0.043230000000     0.190140000000     0.249810000000     0.0384096  
H230     H      0.044650000000     0.273240000000     0.156270000000     0.0447982  
H231     H      0.935160000000     0.400290000000     0.188770000000     0.0954845  
H232     H      0.015340000000     0.382130000000     0.189220000000     0.0935699  
N1       N      0.452950000000     0.182470000000     0.274810000000    -0.17769    
N2       N      0.488150000000     0.274220000000     0.186620000000    -0.162736   
N3       N      0.434600000000     0.267540000000     0.352500000000    -0.198522   
N4       N      0.490200000000     0.771540000000     0.276030000000    -0.177763   
N5       N      0.464730000000     0.683150000000     0.180950000000    -0.162983   
N6       N      0.479560000000     0.685590000000     0.354080000000    -0.197517   
N7       N      0.493610000000     0.677340000000     0.770880000000    -0.176682   
N8       N      0.470360000000     0.773880000000     0.682630000000    -0.163142   
N9       N      0.481730000000     0.599800000000     0.684790000000    -0.197512   
N10      N      0.483360000000     0.267880000000     0.779720000000    -0.177936   
N11      N      0.462290000000     0.181550000000     0.681890000000    -0.164484   
N12      N      0.455310000000     0.184380000000     0.855580000000    -0.197602   
N13      N      0.768560000000     0.281340000000     0.462830000000    -0.177152   
N14      N      0.677370000000     0.185270000000     0.453190000000    -0.163118   
N15      N      0.687250000000     0.357360000000     0.431280000000    -0.197535   
N16      N      0.685540000000     0.778520000000     0.502760000000    -0.178592   
N17      N      0.776700000000     0.687380000000     0.475630000000    -0.16303    
N18      N      0.608270000000     0.692920000000     0.521710000000    -0.197615   
N19      N      0.268820000000     0.179100000000     0.495460000000    -0.177799   
N20      N      0.181010000000     0.272910000000     0.463230000000    -0.16172    
N21      N      0.344910000000     0.263060000000     0.523550000000    -0.19813    
N22      N      0.187620000000     0.679320000000     0.502650000000    -0.178125   
N23      N      0.277270000000     0.770090000000     0.469200000000    -0.163367   
N24      N      0.273470000000     0.600370000000     0.509840000000    -0.197966   
N25      N      0.686070000000     0.462130000000     0.183560000000    -0.177963   
N26      N      0.775640000000     0.499990000000     0.272340000000    -0.163582   
N27      N      0.772380000000     0.449810000000     0.105660000000    -0.198254   
N28      N      0.277070000000     0.472290000000     0.186910000000    -0.177341   
N29      N      0.185250000000     0.503010000000     0.277020000000    -0.163023   
N30      N      0.355590000000     0.465760000000     0.273290000000    -0.197688   
N31      N      0.179390000000     0.465270000000     0.685980000000    -0.176687   
N32      N      0.276440000000     0.454040000000     0.776740000000    -0.16224    
N33      N      0.103940000000     0.430860000000     0.766640000000    -0.197028   
N34      N      0.686260000000     0.476750000000     0.776940000000    -0.178215   
N35      N      0.771960000000     0.457620000000     0.678090000000    -0.163321   
N36      N      0.768680000000     0.441910000000     0.851070000000    -0.197099   
N37      N      0.689000000000     0.677920000000     0.982400000000    -0.177105   
N38      N      0.778560000000     0.774810000000     0.966570000000    -0.163437   
N39      N      0.773030000000     0.601110000000     0.958930000000    -0.19723    
N40      N      0.683760000000     0.270880000000     0.993520000000    -0.179252   
N41      N      0.773930000000     0.182090000000     0.956270000000    -0.162915   
N42      N      0.606110000000     0.184230000000     0.004240000000    -0.19714    
N43      N      0.187230000000     0.777140000000     0.001130000000    -0.176189   
N44      N      0.276680000000     0.683540000000     0.971160000000    -0.161289   
N45      N      0.109760000000     0.692480000000     0.022670000000    -0.197328   
N46      N      0.183130000000     0.186040000000     0.951300000000    -0.177805   
N47      N      0.273720000000     0.274410000000     0.988520000000    -0.162772   
N48      N      0.105100000000     0.272520000000     0.942290000000    -0.198075   
N49      N      0.684770000000     0.997740000000     0.681010000000    -0.178962   
N50      N      0.776280000000     0.963770000000     0.770900000000    -0.161376   
N51      N      0.607500000000     0.009740000000     0.767780000000    -0.197292   
N52      N      0.277840000000     0.950670000000     0.684910000000    -0.178611   
N53      N      0.186350000000     0.984410000000     0.773150000000    -0.162941   
N54      N      0.356870000000     0.945990000000     0.770830000000    -0.198842   
N55      N      0.269130000000     0.968850000000     0.276190000000    -0.177461   
N56      N      0.183080000000     0.002410000000     0.181700000000    -0.16209    
N57      N      0.182140000000     0.976020000000     0.353810000000    -0.198776   
N58      N      0.679600000000     0.971440000000     0.269150000000    -0.176079   
N59      N      0.773950000000     0.997400000000     0.178720000000    -0.163847   
N60      N      0.600920000000     0.972870000000     0.182990000000    -0.198397   
N61      N      0.992220000000     0.172260000000     0.759700000000    -0.179272   
N62      N      0.966350000000     0.266010000000     0.669900000000    -0.162742   
N63      N      0.986900000000     0.092590000000     0.675040000000    -0.199964   
N64      N      0.989440000000     0.762710000000     0.784260000000    -0.178585   
N65      N      0.960700000000     0.674180000000     0.690410000000    -0.16306    
N66      N      0.974720000000     0.679360000000     0.864010000000    -0.198221   
N67      N      0.979080000000     0.697480000000     0.285210000000    -0.176992   
N68      N      0.996990000000     0.786750000000     0.188950000000    -0.165359   
N69      N      0.002750000000     0.780210000000     0.363050000000    -0.195919   
N70      N      0.962890000000     0.289480000000     0.259470000000    -0.177104   
N71      N      0.986440000000     0.195100000000     0.169260000000    -0.162157   
N72      N      0.970330000000     0.369260000000     0.175150000000    -0.198572   
O1       O      0.981360000000     0.162900000000     0.067410000000    -0.377488   
O2       O      0.984870000000     0.809570000000     0.085910000000    -0.383081   
O3       O      0.877620000000     0.991320000000     0.152540000000    -0.377719   
O4       O      0.080820000000     0.994250000000     0.152550000000    -0.375017   
O5       O      0.157590000000     0.991320000000     0.078690000000    -0.377253   
O6       O      0.803070000000     0.987490000000     0.076490000000    -0.375791   
O7       O      0.987640000000     0.888360000000     0.157360000000    -0.376584   
O8       O      0.980620000000     0.091380000000     0.146230000000    -0.37613    
O9       O      0.044010000000     0.921830000000     0.042740000000    -0.506474   
O10      O      0.916080000000     0.046660000000     0.035240000000    -0.50581    
O11      O      0.916940000000     0.919640000000     0.042480000000    -0.64923    
O12      O      0.042900000000     0.047380000000     0.035490000000    -0.645174   
O13      O      0.986830000000     0.797400000000     0.885560000000    -0.38493    
O14      O      0.984140000000     0.149690000000     0.863870000000    -0.378063   
O15      O      0.803930000000     0.877950000000     0.975150000000    -0.378184   
O16      O      0.159710000000     0.880020000000     0.987320000000    -0.376912   
O17      O      0.156990000000     0.083260000000     0.965760000000    -0.375172   
O18      O      0.803170000000     0.080240000000     0.966690000000    -0.377585   
O19      O      0.879970000000     0.967430000000     0.797950000000    -0.377539   
O20      O      0.083290000000     0.976730000000     0.799730000000    -0.378217   
O21      O      0.804730000000     0.972050000000     0.873280000000    -0.373661   
O22      O      0.158010000000     0.980400000000     0.875580000000    -0.378914   
O23      O      0.880720000000     0.804060000000     0.976860000000    -0.379394   
O24      O      0.877510000000     0.156440000000     0.962520000000    -0.380449   
O25      O      0.080440000000     0.156460000000     0.960740000000    -0.381342   
O26      O      0.084140000000     0.805700000000     0.991030000000    -0.379887   
O27      O      0.984520000000     0.867370000000     0.806170000000    -0.380585   
O28      O      0.985520000000     0.070620000000     0.793470000000    -0.380541   
O29      O      0.042980000000     0.039050000000     0.910700000000    -0.501909   
O30      O      0.918510000000     0.913430000000     0.916240000000    -0.50961    
O31      O      0.917240000000     0.039010000000     0.908330000000    -0.64818    
O32      O      0.046210000000     0.913920000000     0.916320000000    -0.647669   
O33      O      0.970960000000     0.311240000000     0.363880000000    -0.377551   
O34      O      0.982290000000     0.663410000000     0.386670000000    -0.383786   
O35      O      0.878280000000     0.493680000000     0.300920000000    -0.378249   
O36      O      0.081860000000     0.494330000000     0.302110000000    -0.380308   
O37      O      0.155890000000     0.489520000000     0.378610000000    -0.377657   
O38      O      0.801910000000     0.491040000000     0.375120000000    -0.38035    
O39      O      0.980640000000     0.592920000000     0.307660000000    -0.378525   
O40      O      0.973310000000     0.390700000000     0.293920000000    -0.383337   
O41      O      0.043740000000     0.545870000000     0.418970000000    -0.505573   
O42      O      0.915030000000     0.422450000000     0.409960000000    -0.505589   
O43      O      0.917230000000     0.548200000000     0.417330000000    -0.656694   
O44      O      0.041800000000     0.419740000000     0.410640000000    -0.648659   
O45      O      0.972310000000     0.651340000000     0.587410000000    -0.381578   
O46      O      0.972910000000     0.297970000000     0.568190000000    -0.376295   
O47      O      0.804050000000     0.584880000000     0.480010000000    -0.380696   
O48      O      0.156930000000     0.577510000000     0.489920000000    -0.38275    
O49      O      0.153490000000     0.375460000000     0.472840000000    -0.378341   
O50      O      0.800080000000     0.383190000000     0.468730000000    -0.383818   
O51      O      0.874570000000     0.466090000000     0.651280000000    -0.379685   
O52      O      0.076830000000     0.469920000000     0.655010000000    -0.384327   
O53      O      0.799380000000     0.475100000000     0.576440000000    -0.378422   
O54      O      0.153770000000     0.469630000000     0.581890000000    -0.376734   
O55      O      0.879930000000     0.659630000000     0.480590000000    -0.376406   
O56      O      0.873030000000     0.306130000000     0.464740000000    -0.376229   
O57      O      0.077570000000     0.301050000000     0.464850000000    -0.376928   
O58      O      0.083860000000     0.654370000000     0.492090000000    -0.380589   
O59      O      0.969270000000     0.572450000000     0.658710000000    -0.376862   
O60      O      0.973610000000     0.369590000000     0.647000000000    -0.37907    
O61      O      0.039390000000     0.412130000000     0.537390000000    -0.505819   
O62      O      0.914970000000     0.541860000000     0.543450000000    -0.507445   
O63      O      0.913950000000     0.414830000000     0.535000000000    -0.654408   
O64      O      0.041740000000     0.539000000000     0.544880000000    -0.653434   
O65      O      0.653730000000     0.975250000000     0.373310000000    -0.374501   
O66      O      0.299630000000     0.974640000000     0.378710000000    -0.384042   
O67      O      0.481030000000     0.875250000000     0.301760000000    -0.378033   
O68      O      0.466950000000     0.079560000000     0.301400000000    -0.378052   
O69      O      0.463740000000     0.153460000000     0.377230000000    -0.382657   
O70      O      0.486990000000     0.802360000000     0.378300000000    -0.385963   
O71      O      0.373090000000     0.972660000000     0.302360000000    -0.379463   
O72      O      0.576840000000     0.976990000000     0.300260000000    -0.383165   
O73      O      0.412040000000     0.039780000000     0.415590000000    -0.504466   
O74      O      0.541550000000     0.916330000000     0.414430000000    -0.504635   
O75      O      0.414920000000     0.913650000000     0.415980000000    -0.652324   
O76      O      0.538560000000     0.041820000000     0.413780000000    -0.647441   
O77      O      0.302720000000     0.964030000000     0.581830000000    -0.378287   
O78      O      0.656600000000     0.989670000000     0.577830000000    -0.373816   
O79      O      0.379690000000     0.799900000000     0.475550000000    -0.379034   
O80      O      0.372190000000     0.152010000000     0.484630000000    -0.380981   
O81      O      0.575610000000     0.156360000000     0.468640000000    -0.380256   
O82      O      0.582820000000     0.804950000000     0.487320000000    -0.38583    
O83      O      0.479610000000     0.877060000000     0.655990000000    -0.379171   
O84      O      0.470740000000     0.079400000000     0.653870000000    -0.38485    
O85      O      0.474560000000     0.802600000000     0.580230000000    -0.378859   
O86      O      0.474770000000     0.155230000000     0.579310000000    -0.379973   
O87      O      0.302450000000     0.873350000000     0.475500000000    -0.378089   
O88      O      0.657520000000     0.880290000000     0.485790000000    -0.379854   
O89      O      0.652870000000     0.082860000000     0.468530000000    -0.378702   
O90      O      0.297600000000     0.076430000000     0.485170000000    -0.380388   
O91      O      0.379340000000     0.967310000000     0.654990000000    -0.382622   
O92      O      0.581730000000     0.986310000000     0.652880000000    -0.385374   
O93      O      0.541150000000     0.042890000000     0.540430000000    -0.504558   
O94      O      0.416610000000     0.914550000000     0.541830000000    -0.508101   
O95      O      0.543560000000     0.916810000000     0.541140000000    -0.654837   
O96      O      0.413720000000     0.039570000000     0.542110000000    -0.652404   
O97      O      0.302890000000     0.376750000000     0.983860000000    -0.375939   
O98      O      0.656770000000     0.374020000000     0.984720000000    -0.382514   
O99      O      0.480590000000     0.298840000000     0.881970000000    -0.38761    
O100     O      0.483750000000     0.300650000000     0.083600000000    -0.378063   
O101     O      0.482730000000     0.376900000000     0.157790000000    -0.375231   
O102     O      0.481730000000     0.371790000000     0.805200000000    -0.378559   
O103     O      0.580710000000     0.300300000000     0.987190000000    -0.382747   
O104     O      0.377310000000     0.300460000000     0.984860000000    -0.382013   
O105     O      0.542740000000     0.413950000000     0.044070000000    -0.510942   
O106     O      0.416620000000     0.413460000000     0.918540000000    -0.507273   
O107     O      0.543390000000     0.411500000000     0.917810000000    -0.652831   
O108     O      0.416700000000     0.415050000000     0.044430000000    -0.651444   
O109     O      0.657660000000     0.575750000000     0.981950000000    -0.387417   
O110     O      0.304330000000     0.580580000000     0.977710000000    -0.378341   
O111     O      0.582470000000     0.475090000000     0.803580000000    -0.379148   
O112     O      0.582690000000     0.473380000000     0.157050000000    -0.379632   
O113     O      0.379840000000     0.475770000000     0.156740000000    -0.384952   
O114     O      0.379010000000     0.468610000000     0.803150000000    -0.379157   
O115     O      0.487290000000     0.651990000000     0.874790000000    -0.37547    
O116     O      0.475000000000     0.655690000000     0.078360000000    -0.375358   
O117     O      0.484950000000     0.575040000000     0.802070000000    -0.382413   
O118     O      0.474830000000     0.580740000000     0.154000000000    -0.381387   
O119     O      0.656520000000     0.476420000000     0.879520000000    -0.386974   
O120     O      0.304050000000     0.467400000000     0.878920000000    -0.374528   
O121     O      0.303600000000     0.478090000000     0.083140000000    -0.374936   
O122     O      0.656510000000     0.470300000000     0.081160000000    -0.383536   
O123     O      0.584580000000     0.652600000000     0.979190000000    -0.37767    
O124     O      0.380040000000     0.655530000000     0.973130000000    -0.3757     
O125     O      0.418300000000     0.541340000000     0.042050000000    -0.504673   
O126     O      0.543830000000     0.538150000000     0.916180000000    -0.507958   
O127     O      0.417300000000     0.539570000000     0.915500000000    -0.646411   
O128     O      0.544210000000     0.541030000000     0.042770000000    -0.64807    
Zr1      Zr     0.979550000000     0.987250000000     0.101250000000     1.41896    
Zr2      Zr     0.982180000000     0.855510000000     0.982640000000     1.42045    
Zr3      Zr     0.979270000000     0.105560000000     0.968650000000     1.42103    
Zr4      Zr     0.854840000000     0.979410000000     0.975200000000     1.41844    
Zr5      Zr     0.107220000000     0.981290000000     0.977030000000     1.42122    
Zr6      Zr     0.981560000000     0.972450000000     0.850270000000     1.4207     
Zr7      Zr     0.979920000000     0.488100000000     0.352020000000     1.42444    
Zr8      Zr     0.980600000000     0.606030000000     0.484280000000     1.42659    
Zr9      Zr     0.976510000000     0.354460000000     0.469120000000     1.41877    
Zr10     Zr     0.852930000000     0.482910000000     0.476160000000     1.43423    
Zr11     Zr     0.104050000000     0.477770000000     0.479320000000     1.42085    
Zr12     Zr     0.976410000000     0.473620000000     0.602080000000     1.42604    
Zr13     Zr     0.475650000000     0.977540000000     0.352230000000     1.41805    
Zr14     Zr     0.351450000000     0.975710000000     0.479610000000     1.42542    
Zr15     Zr     0.604290000000     0.980630000000     0.476460000000     1.41734    
Zr16     Zr     0.480370000000     0.853370000000     0.478940000000     1.43016    
Zr17     Zr     0.475020000000     0.103230000000     0.478100000000     1.42135    
Zr18     Zr     0.479610000000     0.978320000000     0.603450000000     1.4256     
Zr19     Zr     0.479260000000     0.351230000000     0.982230000000     1.429      
Zr20     Zr     0.605370000000     0.475490000000     0.980460000000     1.42729    
Zr21     Zr     0.354390000000     0.478050000000     0.980620000000     1.41857    
Zr22     Zr     0.480510000000     0.474400000000     0.854570000000     1.42318    
Zr23     Zr     0.480850000000     0.478300000000     0.105610000000     1.42835    
Zr24     Zr     0.481430000000     0.603010000000     0.977660000000     1.41547    


