data_structure

_audit_creation_method RASPA-1.0
_audit_creation_date 2023-5-19
_audit_author_name 'Poobodin Mano'

_cell_length_a    21.4304
_cell_length_b    21.3824
_cell_length_c    21.3491
_cell_angle_alpha 90
_cell_angle_beta  90
_cell_angle_gamma 90
_cell_volume      9782.87

_symmetry_cell_setting          triclinic
_symmetry_space_group_name_Hall 'P 1'
_symmetry_space_group_name_H-M  'P 1'
_symmetry_Int_Tables_number     1

_symmetry_equiv_pos_as_xyz 'x,y,z'

loop_
_atom_site_label
_atom_site_type_symbol
_atom_site_fract_x
_atom_site_fract_y
_atom_site_fract_z
_atom_site_charge
Br1      Br     0.369820000000     0.264590000000     0.367970000000    -0.283386   
Br2      Br     0.518820000000     0.876240000000     0.180710000000    -0.237592   
Br3      Br     0.457790000000     0.870780000000     0.782230000000    -0.233511   
Br4      Br     0.340710000000     0.298190000000     0.762390000000    -0.181672   
Br5      Br     0.587880000000     0.286830000000     0.446800000000    -0.227115   
Br6      Br     0.781410000000     0.875690000000     0.491930000000    -0.170045   
Br7      Br     0.252750000000     0.326790000000     0.576900000000    -0.217724   
Br8      Br     0.082740000000     0.784680000000     0.532820000000    -0.226911   
Br9      Br     0.580920000000     0.490420000000     0.289450000000    -0.231873   
Br10     Br     0.279460000000     0.522440000000     0.376170000000    -0.236897   
Br11     Br     0.082250000000     0.515550000000     0.785330000000    -0.215043   
Br12     Br     0.776400000000     0.443390000000     0.878710000000    -0.223952   
Br13     Br     0.874160000000     0.674280000000     0.950850000000    -0.222944   
Br14     Br     0.877850000000     0.280700000000     0.018530000000    -0.224466   
Br15     Br     0.371980000000     0.775040000000     0.026780000000    -0.225938   
Br16     Br     0.255500000000     0.290690000000     0.835690000000    -0.189715   
Br17     Br     0.785510000000     0.942060000000     0.580810000000    -0.187611   
Br18     Br     0.288010000000     0.982990000000     0.885260000000    -0.23213    
Br19     Br     0.076890000000     0.969530000000     0.287910000000    -0.215742   
Br20     Br     0.867570000000     0.938300000000     0.276520000000    -0.210053   
Br21     Br     0.060650000000     0.195010000000     0.589760000000    -0.22995    
Br22     Br     0.919480000000     0.587830000000     0.780980000000    -0.199201   
Br23     Br     0.943540000000     0.789500000000     0.376000000000    -0.195482   
Br24     Br     0.032790000000     0.374670000000     0.182080000000    -0.238172   
C1       C      0.985210000000     0.138530000000     0.137920000000     0.390898   
C2       C      0.984470000000     0.820360000000     0.139060000000     0.39354    
C3       C      0.815830000000     0.969240000000     0.134100000000     0.396996   
C4       C      0.133300000000     0.982290000000     0.144870000000     0.400657   
C5       C      0.985010000000     0.818280000000     0.818930000000     0.39142    
C6       C      0.994790000000     0.138510000000     0.820570000000     0.391959   
C7       C      0.820170000000     0.818530000000     0.964670000000     0.397851   
C8       C      0.138290000000     0.816540000000     0.977810000000     0.389998   
C9       C      0.141280000000     0.133800000000     0.962440000000     0.391501   
C10      C      0.822930000000     0.138410000000     0.992510000000     0.402323   
C11      C      0.826320000000     0.992030000000     0.814300000000     0.389308   
C12      C      0.145270000000     0.984470000000     0.826250000000     0.405077   
C13      C      0.980080000000     0.327390000000     0.316640000000     0.402783   
C14      C      0.961270000000     0.645440000000     0.322040000000     0.400595   
C15      C      0.818700000000     0.469640000000     0.321020000000     0.395596   
C16      C      0.136390000000     0.501560000000     0.321370000000     0.402997   
C17      C      0.957240000000     0.640900000000     0.640540000000     0.403382   
C18      C      0.991990000000     0.321730000000     0.635970000000     0.403799   
C19      C      0.813100000000     0.637230000000     0.487030000000     0.396751   
C20      C      0.131460000000     0.649380000000     0.483160000000     0.399998   
C21      C      0.142780000000     0.331640000000     0.471610000000     0.407435   
C22      C      0.823640000000     0.319580000000     0.483400000000     0.391953   
C23      C      0.818590000000     0.468590000000     0.639490000000     0.392795   
C24      C      0.136130000000     0.493980000000     0.641750000000     0.402233   
C25      C      0.635110000000     0.988970000000     0.315460000000     0.389904   
C26      C      0.317720000000     0.975150000000     0.325960000000     0.392624   
C27      C      0.477380000000     0.825460000000     0.318950000000     0.405573   
C28      C      0.451430000000     0.141530000000     0.322990000000     0.404816   
C29      C      0.327570000000     0.975650000000     0.644430000000     0.396512   
C30      C      0.645850000000     0.975580000000     0.635290000000     0.398492   
C31      C      0.321110000000     0.825560000000     0.494340000000     0.394308   
C32      C      0.324260000000     0.144190000000     0.484080000000     0.401941   
C33      C      0.640700000000     0.142670000000     0.466060000000     0.399008   
C34      C      0.639830000000     0.824210000000     0.466530000000     0.404919   
C35      C      0.486050000000     0.821220000000     0.639720000000     0.395326   
C36      C      0.487090000000     0.143570000000     0.640360000000     0.386044   
C37      C      0.322680000000     0.314430000000     0.975760000000     0.409706   
C38      C      0.639600000000     0.318360000000     0.985300000000     0.390987   
C39      C      0.469540000000     0.304790000000     0.836080000000     0.404957   
C40      C      0.478690000000     0.323410000000     0.153490000000     0.39088    
C41      C      0.635400000000     0.636910000000     0.980050000000     0.38628    
C42      C      0.317710000000     0.634190000000     0.993600000000     0.402448   
C43      C      0.636620000000     0.472830000000     0.824520000000     0.400875   
C44      C      0.634790000000     0.485600000000     0.144240000000     0.401207   
C45      C      0.315320000000     0.473630000000     0.141790000000     0.391195   
C46      C      0.317070000000     0.468890000000     0.822890000000     0.400311   
C47      C      0.472360000000     0.630200000000     0.818490000000     0.384529   
C48      C      0.481370000000     0.638100000000     0.139310000000     0.39415    
C49      C      0.497880000000     0.214360000000     0.187660000000    -0.0153627  
C50      C      0.458710000000     0.294810000000     0.265350000000    -0.0557425  
C51      C      0.448020000000     0.168870000000     0.210780000000    -0.0112599  
C52      C      0.409430000000     0.246960000000     0.286660000000     0.127382   
C53      C      0.493900000000     0.668970000000     0.250310000000    -0.0139603  
C54      C      0.509490000000     0.747090000000     0.165030000000    -0.0437904  
C55      C      0.457420000000     0.716720000000     0.288200000000    -0.010364   
C56      C      0.476940000000     0.797720000000     0.204070000000     0.112575   
C57      C      0.465900000000     0.661360000000     0.705950000000    -0.0138281  
C58      C      0.449860000000     0.740330000000     0.790250000000    -0.0461392  
C59      C      0.502800000000     0.710110000000     0.668000000000    -0.0132867  
C60      C      0.488490000000     0.788820000000     0.754210000000     0.111277   
C61      C      0.535170000000     0.185190000000     0.736930000000    -0.0161496  
C62      C      0.443970000000     0.241620000000     0.684670000000    -0.0485276  
C63      C      0.507430000000     0.201360000000     0.801570000000    -0.0102691  
C64      C      0.414820000000     0.246530000000     0.749890000000     0.110175   
C65      C      0.793840000000     0.207220000000     0.492080000000    -0.0140953  
C66      C      0.712030000000     0.291220000000     0.494850000000    -0.0453847  
C67      C      0.752000000000     0.169270000000     0.447740000000    -0.0131447  
C68      C      0.673930000000     0.255350000000     0.446440000000     0.110789   
C69      C      0.700990000000     0.667860000000     0.487570000000    -0.0132384  
C70      C      0.784310000000     0.746870000000     0.508980000000    -0.0413107  
C71      C      0.669260000000     0.714640000000     0.443530000000    -0.0121599  
C72      C      0.754180000000     0.792910000000     0.463390000000     0.10534    
C73      C      0.214210000000     0.178010000000     0.486320000000    -0.0134664  
C74      C      0.304030000000     0.256440000000     0.475140000000    -0.0671102  
C75      C      0.177780000000     0.224330000000     0.446790000000    -0.00153522 
C76      C      0.253780000000     0.306810000000     0.487520000000     0.121719   
C77      C      0.288940000000     0.714580000000     0.504720000000    -0.0103476  
C78      C      0.212340000000     0.799820000000     0.524510000000    -0.0428176  
C79      C      0.240700000000     0.679760000000     0.465700000000    -0.0163035  
C80      C      0.160930000000     0.763730000000     0.489460000000     0.108977   
C81      C      0.787670000000     0.456330000000     0.209410000000    -0.014678   
C82      C      0.707370000000     0.451930000000     0.294250000000    -0.0459354  
C83      C      0.745820000000     0.501030000000     0.172390000000    -0.0121859  
C84      C      0.666840000000     0.498680000000     0.258490000000     0.111987   
C85      C      0.203310000000     0.465200000000     0.172050000000    -0.0150705  
C86      C      0.286630000000     0.468860000000     0.254400000000    -0.04795    
C87      C      0.165440000000     0.513310000000     0.209440000000    -0.0111959  
C88      C      0.249780000000     0.519120000000     0.289330000000     0.114286   
C89      C      0.285890000000     0.457750000000     0.710970000000    -0.0180222  
C90      C      0.204520000000     0.464780000000     0.794900000000    -0.0458167  
C91      C      0.247900000000     0.503270000000     0.670610000000    -0.00834148 
C92      C      0.168670000000     0.512460000000     0.755360000000     0.110844   
C93      C      0.707790000000     0.450690000000     0.668440000000    -0.0130315  
C94      C      0.791410000000     0.442100000000     0.748920000000    -0.0433541  
C95      C      0.667020000000     0.487030000000     0.714360000000    -0.0118153  
C96      C      0.751150000000     0.477110000000     0.796790000000     0.110254   
C97      C      0.665790000000     0.749110000000     0.988320000000    -0.0185387  
C98      C      0.747480000000     0.665060000000     0.988170000000    -0.0489883  
C99      C      0.708960000000     0.790250000000     0.948150000000    -0.0113259  
C100     C      0.788110000000     0.705160000000     0.944950000000     0.111637   
C101     C      0.670970000000     0.207470000000     0.970740000000    -0.0174201  
C102     C      0.752090000000     0.292150000000     0.977140000000    -0.0508967  
C103     C      0.712220000000     0.165720000000     0.011620000000    -0.00719253 
C104     C      0.791460000000     0.250270000000     0.019710000000     0.114939   
C105     C      0.168120000000     0.705070000000     0.962370000000    -0.0187463  
C106     C      0.250480000000     0.787880000000     0.973490000000    -0.0503336  
C107     C      0.206070000000     0.662250000000     0.005650000000    -0.00672322 
C108     C      0.285440000000     0.745970000000     0.019600000000     0.115124   
C109     C      0.252350000000     0.157900000000     0.940900000000    -0.0175739  
C110     C      0.169300000000     0.241400000000     0.931820000000    -0.0398714  
C111     C      0.293840000000     0.203210000000     0.976800000000    -0.00223429 
C112     C      0.225570000000     0.285670000000     0.922440000000     0.103298   
C113     C      0.717230000000     0.015350000000     0.782300000000    -0.0112163  
C114     C      0.800130000000     0.001110000000     0.701010000000    -0.0407272  
C115     C      0.675240000000     0.969400000000     0.747220000000    -0.0151329  
C116     C      0.758520000000     0.953710000000     0.667390000000     0.103498   
C117     C      0.217070000000     0.959580000000     0.674990000000    -0.0151813  
C118     C      0.301080000000     0.959680000000     0.756340000000    -0.0469922  
C119     C      0.177110000000     0.001350000000     0.716550000000    -0.0075797  
C120     C      0.260040000000     0.999830000000     0.799220000000     0.110523   
C121     C      0.286250000000     0.958760000000     0.215410000000    -0.0132147  
C122     C      0.206520000000     0.955410000000     0.300660000000    -0.0433668  
C123     C      0.242730000000     0.998900000000     0.175940000000    -0.013923   
C124     C      0.161070000000     0.993400000000     0.260160000000     0.106902   
C125     C      0.664510000000     0.002650000000     0.203100000000    -0.00973454 
C126     C      0.747000000000     0.994260000000     0.286030000000    -0.0481889  
C127     C      0.703390000000     0.959270000000     0.160800000000    -0.0141992  
C128     C      0.781570000000     0.946420000000     0.246010000000     0.110748   
C129     C      0.012990000000     0.249600000000     0.793280000000    -0.00951858 
C130     C      0.030880000000     0.166460000000     0.714250000000    -0.0448962  
C131     C      0.979530000000     0.290090000000     0.745410000000    -0.0127524  
C132     C      0.004960000000     0.208410000000     0.661690000000     0.115628   
C133     C      0.994030000000     0.787400000000     0.706820000000    -0.0161567  
C134     C      0.984670000000     0.705340000000     0.790730000000    -0.05175    
C135     C      0.944360000000     0.752790000000     0.668520000000    -0.0118937  
C136     C      0.932940000000     0.673920000000     0.752730000000     0.116259   
C137     C      0.992900000000     0.708820000000     0.171270000000    -0.0172263  
C138     C      0.993700000000     0.794010000000     0.252080000000    -0.0508892  
C139     C      0.944840000000     0.673240000000     0.210540000000    -0.0108404  
C140     C      0.943870000000     0.758890000000     0.289360000000     0.112987   
C141     C      0.992470000000     0.168920000000     0.249760000000    -0.0172151  
C142     C      0.017640000000     0.245890000000     0.165750000000    -0.0407926  
C143     C      0.956910000000     0.219270000000     0.285480000000    -0.00983393 
C144     C      0.985340000000     0.298540000000     0.202300000000     0.109154   
H1       H      0.888670000000     0.888050000000     0.065220000000     0.212229   
H2       H      0.069100000000     0.067950000000     0.069890000000     0.213538   
H3       H      0.894620000000     0.070140000000     0.887760000000     0.209175   
H4       H      0.071660000000     0.888690000000     0.891390000000     0.213597   
H5       H      0.883270000000     0.570940000000     0.392060000000     0.213728   
H6       H      0.069960000000     0.401000000000     0.388060000000     0.21391    
H7       H      0.893300000000     0.389560000000     0.568040000000     0.212761   
H8       H      0.062330000000     0.576760000000     0.571760000000     0.216163   
H9       H      0.389000000000     0.893180000000     0.394660000000     0.212509   
H10      H      0.565850000000     0.074110000000     0.386890000000     0.21296    
H11      H      0.573430000000     0.892690000000     0.565500000000     0.213887   
H12      H      0.395240000000     0.072290000000     0.574190000000     0.211817   
H13      H      0.566790000000     0.383580000000     0.897450000000     0.209476   
H14      H      0.387380000000     0.386930000000     0.075700000000     0.21163    
H15      H      0.386770000000     0.561460000000     0.891080000000     0.208037   
H16      H      0.564620000000     0.567470000000     0.070330000000     0.21581    
H17      H      0.499620000000     0.291550000000     0.297190000000     0.079972   
H18      H      0.541730000000     0.204620000000     0.213770000000     0.0445435  
H19      H      0.464710000000     0.120330000000     0.202760000000     0.0470746  
H20      H      0.438860000000     0.342690000000     0.269130000000     0.0761002  
H21      H      0.369630000000     0.253210000000     0.253700000000     0.0267885  
H22      H      0.507440000000     0.205040000000     0.137380000000     0.0455519  
H23      H      0.405170000000     0.175580000000     0.182110000000     0.0424428  
H24      H      0.560740000000     0.750440000000     0.172800000000     0.0618623  
H25      H      0.543650000000     0.670720000000     0.265090000000     0.0497615  
H26      H      0.463790000000     0.705390000000     0.338590000000     0.0475622  
H27      H      0.500890000000     0.756940000000     0.114630000000     0.0773509  
H28      H      0.427830000000     0.801280000000     0.187660000000     0.0381027  
H29      H      0.475600000000     0.621670000000     0.261690000000     0.0586634  
H30      H      0.406970000000     0.710870000000     0.277420000000     0.0449804  
H31      H      0.399780000000     0.747260000000     0.778320000000     0.063112   
H32      H      0.416610000000     0.662030000000     0.689650000000     0.0419046  
H33      H      0.494860000000     0.700360000000     0.617520000000     0.0450909  
H34      H      0.454880000000     0.749720000000     0.841210000000     0.0732183  
H35      H      0.537580000000     0.785050000000     0.770670000000     0.0298852  
H36      H      0.485220000000     0.614160000000     0.695880000000     0.0437598  
H37      H      0.553310000000     0.702290000000     0.677060000000     0.0409036  
H38      H      0.469420000000     0.285650000000     0.673980000000     0.0675446  
H39      H      0.572300000000     0.220030000000     0.726680000000     0.0416766  
H40      H      0.546170000000     0.210710000000     0.835040000000     0.0385969  
H41      H      0.406720000000     0.234590000000     0.649020000000     0.0679427  
H42      H      0.394100000000     0.199440000000     0.758250000000     0.0382678  
H43      H      0.558280000000     0.138660000000     0.739250000000     0.0445143  
H44      H      0.480930000000     0.160130000000     0.818930000000     0.0474072  
H45      H      0.695640000000     0.277640000000     0.542390000000     0.0598338  
H46      H      0.785260000000     0.190760000000     0.540730000000     0.046191   
H47      H      0.760890000000     0.118780000000     0.456080000000     0.0556752  
H48      H      0.703120000000     0.342090000000     0.489180000000     0.0684008  
H49      H      0.692340000000     0.268980000000     0.399630000000     0.0314873  
H50      H      0.843460000000     0.197410000000     0.480610000000     0.050948   
H51      H      0.766760000000     0.179520000000     0.398850000000     0.0434943  
H52      H      0.766070000000     0.756590000000     0.556830000000     0.0642613  
H53      H      0.679390000000     0.672260000000     0.534730000000     0.043557   
H54      H      0.618230000000     0.705580000000     0.443780000000     0.0471289  
H55      H      0.835470000000     0.755320000000     0.510350000000     0.0801734  
H56      H      0.774920000000     0.785070000000     0.416280000000     0.0427355  
H57      H      0.692110000000     0.619690000000     0.470130000000     0.046505   
H58      H      0.686020000000     0.705060000000     0.395160000000     0.0441108  
H59      H      0.342630000000     0.264820000000     0.509090000000     0.0853149  
H60      H      0.199030000000     0.181840000000     0.535940000000     0.0714527  
H61      H      0.127530000000     0.211670000000     0.448600000000     0.0579959  
H62      H      0.329190000000     0.261330000000     0.428880000000     0.131024   
H63      H      0.268060000000     0.350330000000     0.462850000000     0.0419164  
H64      H      0.202900000000     0.129930000000     0.470030000000     0.0534288  
H65      H      0.192990000000     0.219830000000     0.397190000000     0.047493   
H66      H      0.208690000000     0.788880000000     0.575350000000     0.0614525  
H67      H      0.286270000000     0.697350000000     0.553810000000     0.0438501  
H68      H      0.251220000000     0.629100000000     0.469650000000     0.0633472  
H69      H      0.203320000000     0.850740000000     0.519260000000     0.0670919  
H70      H      0.157590000000     0.783190000000     0.441280000000     0.0373541  
H71      H      0.336150000000     0.703410000000     0.486270000000     0.0465565  
H72      H      0.247330000000     0.692930000000     0.415730000000     0.0506638  
H73      H      0.692690000000     0.403820000000     0.280940000000     0.06633    
H74      H      0.778050000000     0.407850000000     0.193190000000     0.050574   
H75      H      0.755070000000     0.493880000000     0.121710000000     0.0529629  
H76      H      0.699010000000     0.457320000000     0.345340000000     0.0702558  
H77      H      0.681880000000     0.546220000000     0.273390000000     0.0270385  
H78      H      0.837240000000     0.467040000000     0.198560000000     0.0541838  
H79      H      0.760100000000     0.549730000000     0.183850000000     0.0416286  
H80      H      0.273660000000     0.422380000000     0.273880000000     0.0663638  
H81      H      0.186830000000     0.417690000000     0.185290000000     0.0546778  
H82      H      0.115100000000     0.505380000000     0.200060000000     0.0588235  
H83      H      0.337300000000     0.475780000000     0.263000000000     0.0735223  
H84      H      0.263980000000     0.564860000000     0.268940000000     0.0309656  
H85      H      0.193540000000     0.471840000000     0.121380000000     0.0520796  
H86      H      0.177130000000     0.560630000000     0.191260000000     0.0436946  
H87      H      0.185450000000     0.417440000000     0.784860000000     0.0808474  
H88      H      0.273030000000     0.409420000000     0.696920000000     0.0809133  
H89      H      0.256920000000     0.492120000000     0.620600000000     0.0575387  
H90      H      0.196430000000     0.474730000000     0.845340000000     0.0708375  
H91      H      0.188130000000     0.559230000000     0.767290000000     0.0276205  
H92      H      0.336230000000     0.464290000000     0.700430000000     0.0566191  
H93      H      0.265740000000     0.551360000000     0.679240000000     0.0396387  
H94      H      0.783990000000     0.390960000000     0.755140000000     0.0601082  
H95      H      0.695400000000     0.400280000000     0.671730000000     0.0421601  
H96      H      0.617490000000     0.476440000000     0.703210000000     0.0453081  
H97      H      0.841320000000     0.451800000000     0.759220000000     0.0805423  
H98      H      0.765260000000     0.527150000000     0.796020000000     0.0443253  
H99      H      0.696740000000     0.466660000000     0.620160000000     0.0470039  
H100     H      0.674110000000     0.537830000000     0.705690000000     0.0444707  
H101     H      0.762210000000     0.673390000000     0.037430000000     0.0624709  
H102     H      0.671990000000     0.762740000000     0.038210000000     0.0462071  
H103     H      0.699370000000     0.839920000000     0.960020000000     0.046236   
H104     H      0.756130000000     0.614940000000     0.977350000000     0.0767672  
H105     H      0.773540000000     0.694170000000     0.896130000000     0.0361815  
H106     H      0.616630000000     0.759420000000     0.975360000000     0.0518068  
H107     H      0.695910000000     0.783540000000     0.898180000000     0.0445633  
H108     H      0.768390000000     0.286210000000     0.928030000000     0.0703967  
H109     H      0.680100000000     0.195730000000     0.920820000000     0.040168   
H110     H      0.702510000000     0.116240000000     0.999130000000     0.0418892  
H111     H      0.759940000000     0.341700000000     0.990750000000     0.0817182  
H112     H      0.775320000000     0.259160000000     0.068460000000     0.030966   
H113     H      0.621320000000     0.196150000000     0.980580000000     0.0444117  
H114     H      0.697930000000     0.172220000000     0.061290000000     0.0414521  
H115     H      0.269800000000     0.780010000000     0.925770000000     0.0668608  
H116     H      0.180080000000     0.693200000000     0.913100000000     0.0462876  
H117     H      0.196940000000     0.613020000000     0.991790000000     0.0463704  
H118     H      0.258940000000     0.837600000000     0.986060000000     0.0778695  
H119     H      0.265060000000     0.755370000000     0.066630000000     0.0317231  
H120     H      0.117730000000     0.694800000000     0.969080000000     0.0530667  
H121     H      0.188360000000     0.668290000000     0.054260000000     0.0433399  
H122     H      0.139420000000     0.241650000000     0.889250000000     0.0641789  
H123     H      0.265460000000     0.158970000000     0.890530000000     0.0669724  
H124     H      0.343280000000     0.191860000000     0.965750000000     0.0502262  
H125     H      0.139870000000     0.260450000000     0.970310000000     0.0563579  
H126     H      0.208490000000     0.333620000000     0.933140000000     0.036577   
H127     H      0.261780000000     0.109940000000     0.958450000000     0.0615289  
H128     H      0.287590000000     0.195570000000     0.027930000000     0.0416931  
H129     H      0.791630000000     0.048120000000     0.680400000000     0.0594625  
H130     H      0.705780000000     0.063420000000     0.766000000000     0.0397294  
H131     H      0.625990000000     0.982710000000     0.756440000000     0.0509934  
H132     H      0.849900000000     0.988860000000     0.693040000000     0.0656738  
H133     H      0.768670000000     0.907620000000     0.689390000000     0.0333531  
H134     H      0.706310000000     0.013020000000     0.833110000000     0.0438362  
H135     H      0.682560000000     0.921960000000     0.767320000000     0.0460695  
H136     H      0.294290000000     0.909640000000     0.768890000000     0.0718278  
H137     H      0.203950000000     0.910050000000     0.683950000000     0.046668   
H138     H      0.127370000000     0.992250000000     0.705110000000     0.0481755  
H139     H      0.350760000000     0.971620000000     0.765220000000     0.081014   
H140     H      0.272290000000     0.049540000000     0.789980000000     0.0338396  
H141     H      0.205930000000     0.970100000000     0.625250000000     0.0506443  
H142     H      0.186940000000     0.050940000000     0.704230000000     0.0486524  
H143     H      0.196400000000     0.904810000000     0.293890000000     0.0640448  
H144     H      0.279070000000     0.908910000000     0.202380000000     0.0493896  
H145     H      0.253840000000     0.990060000000     0.125890000000     0.0510617  
H146     H      0.197740000000     0.966530000000     0.350760000000     0.0683281  
H147     H      0.166890000000     0.043440000000     0.273160000000     0.03157    
H148     H      0.335190000000     0.971310000000     0.203640000000     0.0535265  
H149     H      0.253500000000     0.048900000000     0.185490000000     0.044457   
H150     H      0.766250000000     0.041500000000     0.275840000000     0.0638233  
H151     H      0.675560000000     0.051810000000     0.190240000000     0.0411086  
H152     H      0.695240000000     0.973130000000     0.111310000000     0.0479405  
H153     H      0.755910000000     0.984050000000     0.336280000000     0.0791199  
H154     H      0.760190000000     0.900130000000     0.256440000000     0.0357908  
H155     H      0.614210000000     0.994950000000     0.193160000000     0.055668   
H156     H      0.685450000000     0.910790000000     0.166510000000     0.0514756  
H157     H      0.082570000000     0.171370000000     0.715990000000     0.0710934  
H158     H      0.063280000000     0.262540000000     0.793430000000     0.0537491  
H159     H      0.988700000000     0.339740000000     0.757870000000     0.0590035  
H160     H      0.020880000000     0.116960000000     0.701870000000     0.0658452  
H161     H      0.958140000000     0.190480000000     0.648240000000     0.027274   
H162     H      0.993700000000     0.260350000000     0.840390000000     0.0530138  
H163     H      0.928430000000     0.282320000000     0.750210000000     0.0442585  
H164     H      0.029880000000     0.682870000000     0.778530000000     0.0716859  
H165     H      0.040720000000     0.771470000000     0.690630000000     0.0548424  
H166     H      0.952720000000     0.761960000000     0.618020000000     0.0649108  
H167     H      0.976160000000     0.697340000000     0.841410000000     0.084661   
H168     H      0.888790000000     0.698100000000     0.765760000000     0.036285   
H169     H      0.990500000000     0.838270000000     0.696840000000     0.0538112  
H170     H      0.898020000000     0.773110000000     0.680270000000     0.0491597  
H171     H      0.040360000000     0.780340000000     0.270330000000     0.0725228  
H172     H      0.040140000000     0.691340000000     0.183880000000     0.0485126  
H173     H      0.950460000000     0.622420000000     0.201450000000     0.049137   
H174     H      0.988170000000     0.845050000000     0.259900000000     0.0944553  
H175     H      0.897940000000     0.773860000000     0.270180000000     0.0379798  
H176     H      0.984920000000     0.698090000000     0.120980000000     0.0534073  
H177     H      0.897520000000     0.686570000000     0.193770000000     0.0433487  
H178     H      0.068350000000     0.246590000000     0.177030000000     0.0613103  
H179     H      0.041230000000     0.167430000000     0.267560000000     0.0514911  
H180     H      0.959980000000     0.208080000000     0.336210000000     0.0501874  
H181     H      0.013100000000     0.256080000000     0.114890000000     0.0758716  
H182     H      0.937590000000     0.304570000000     0.182840000000     0.0402528  
H183     H      0.970450000000     0.122900000000     0.259700000000     0.0607436  
H184     H      0.906820000000     0.216060000000     0.272220000000     0.0458682  
N1       N      0.434580000000     0.183190000000     0.277010000000    -0.173182   
N2       N      0.478700000000     0.279580000000     0.200430000000    -0.157433   
N3       N      0.476040000000     0.781360000000     0.272120000000    -0.173093   
N4       N      0.489670000000     0.683930000000     0.183250000000    -0.158431   
N5       N      0.487390000000     0.775530000000     0.685630000000    -0.170373   
N6       N      0.467270000000     0.675850000000     0.773250000000    -0.158883   
N7       N      0.464980000000     0.255130000000     0.795990000000    -0.172878   
N8       N      0.488410000000     0.188530000000     0.685860000000    -0.157481   
N9       N      0.685630000000     0.187360000000     0.455240000000    -0.173      
N10      N      0.778570000000     0.274360000000     0.488450000000    -0.161066   
N11      N      0.685880000000     0.779850000000     0.460160000000    -0.171874   
N12      N      0.767950000000     0.682140000000     0.492340000000    -0.160765   
N13      N      0.190060000000     0.288640000000     0.468060000000    -0.168953   
N14      N      0.281340000000     0.191390000000     0.482580000000    -0.149567   
N15      N      0.176000000000     0.695830000000     0.484380000000    -0.16939    
N16      N      0.275300000000     0.781760000000     0.503620000000    -0.161336   
N17      N      0.679460000000     0.492570000000     0.190040000000    -0.173094   
N18      N      0.773300000000     0.460670000000     0.276750000000    -0.160497   
N19      N      0.181950000000     0.510250000000     0.276700000000    -0.171807   
N20      N      0.270280000000     0.470440000000     0.187320000000    -0.159786   
N21      N      0.180970000000     0.500870000000     0.687590000000    -0.169928   
N22      N      0.271220000000     0.465870000000     0.778020000000    -0.152532   
N23      N      0.683460000000     0.473450000000     0.780350000000    -0.172126   
N24      N      0.774050000000     0.458470000000     0.684430000000    -0.159455   
N25      N      0.775360000000     0.772780000000     0.956290000000    -0.171937   
N26      N      0.681080000000     0.682110000000     0.981800000000    -0.157714   
N27      N      0.778620000000     0.183420000000     0.004860000000    -0.172782   
N28      N      0.685730000000     0.274120000000     0.980830000000    -0.159096   
N29      N      0.272980000000     0.679250000000     0.003930000000    -0.172844   
N30      N      0.183620000000     0.771430000000     0.973490000000    -0.158561   
N31      N      0.279560000000     0.269190000000     0.962390000000    -0.171062   
N32      N      0.186660000000     0.176540000000     0.947460000000    -0.154513   
N33      N      0.691750000000     0.968360000000     0.679840000000    -0.171386   
N34      N      0.783220000000     0.002160000000     0.767990000000    -0.16142    
N35      N      0.192650000000     0.991240000000     0.783280000000    -0.17335    
N36      N      0.283540000000     0.968200000000     0.690300000000    -0.159345   
N37      N      0.176670000000     0.986890000000     0.192240000000    -0.171725   
N38      N      0.271660000000     0.966920000000     0.282230000000    -0.160849   
N39      N      0.770160000000     0.960560000000     0.178700000000    -0.172649   
N40      N      0.680070000000     0.993340000000     0.269820000000    -0.158677   
N41      N      0.998020000000     0.275320000000     0.680260000000    -0.169751   
N42      N      0.006730000000     0.183420000000     0.776310000000    -0.158274   
N43      N      0.944700000000     0.685620000000     0.685170000000    -0.171339   
N44      N      0.987500000000     0.772430000000     0.774070000000    -0.158745   
N45      N      0.950930000000     0.690680000000     0.277400000000    -0.173969   
N46      N      0.989550000000     0.776260000000     0.185350000000    -0.157076   
N47      N      0.979590000000     0.282900000000     0.270100000000    -0.172186   
N48      N      0.993350000000     0.183790000000     0.182630000000    -0.158562   
O1       O      0.988770000000     0.155290000000     0.079880000000    -0.370572   
O2       O      0.982650000000     0.801710000000     0.081370000000    -0.368394   
O3       O      0.872970000000     0.974400000000     0.152250000000    -0.353539   
O4       O      0.075050000000     0.982500000000     0.159330000000    -0.351974   
O5       O      0.153140000000     0.979950000000     0.087600000000    -0.377426   
O6       O      0.799370000000     0.970360000000     0.075700000000    -0.373245   
O7       O      0.982360000000     0.878370000000     0.155800000000    -0.357888   
O8       O      0.977250000000     0.081290000000     0.156040000000    -0.361335   
O9       O      0.040610000000     0.914060000000     0.044840000000    -0.509469   
O10      O      0.915210000000     0.042330000000     0.039800000000    -0.507201   
O11      O      0.914840000000     0.914960000000     0.040150000000    -0.653741   
O12      O      0.042780000000     0.041840000000     0.044150000000    -0.656485   
O13      O      0.982480000000     0.801030000000     0.876890000000    -0.365162   
O14      O      0.986320000000     0.156420000000     0.877750000000    -0.371499   
O15      O      0.802540000000     0.876570000000     0.964990000000    -0.371963   
O16      O      0.155900000000     0.874280000000     0.981510000000    -0.370718   
O17      O      0.158030000000     0.076360000000     0.970950000000    -0.363062   
O18      O      0.804700000000     0.080820000000     0.988390000000    -0.373429   
O19      O      0.884260000000     0.986510000000     0.798170000000    -0.377092   
O20      O      0.088250000000     0.982800000000     0.806050000000    -0.37089    
O21      O      0.806870000000     0.990250000000     0.871700000000    -0.378353   
O22      O      0.159640000000     0.981440000000     0.884540000000    -0.353088   
O23      O      0.877620000000     0.801790000000     0.970970000000    -0.353645   
O24      O      0.880410000000     0.155190000000     0.987200000000    -0.355333   
O25      O      0.083960000000     0.152920000000     0.965130000000    -0.363249   
O26      O      0.080470000000     0.799150000000     0.976530000000    -0.369564   
O27      O      0.985820000000     0.876150000000     0.800990000000    -0.375626   
O28      O      0.995300000000     0.080540000000     0.803120000000    -0.369573   
O29      O      0.044600000000     0.039030000000     0.918960000000    -0.509475   
O30      O      0.918360000000     0.915260000000     0.913400000000    -0.50597    
O31      O      0.919030000000     0.042390000000     0.913680000000    -0.647337   
O32      O      0.044900000000     0.914350000000     0.917150000000    -0.653411   
O33      O      0.979670000000     0.308550000000     0.374210000000    -0.375111   
O34      O      0.965180000000     0.661820000000     0.380010000000    -0.352473   
O35      O      0.875930000000     0.474890000000     0.302520000000    -0.367852   
O36      O      0.078870000000     0.497800000000     0.303030000000    -0.36564    
O37      O      0.152860000000     0.498030000000     0.379270000000    -0.352206   
O38      O      0.801710000000     0.471500000000     0.379050000000    -0.37658    
O39      O      0.964990000000     0.587960000000     0.303590000000    -0.378393   
O40      O      0.979560000000     0.385600000000     0.300820000000    -0.355989   
O41      O      0.038600000000     0.550490000000     0.417340000000    -0.511395   
O42      O      0.916440000000     0.419920000000     0.415540000000    -0.509482   
O43      O      0.911320000000     0.546160000000     0.417280000000    -0.659397   
O44      O      0.042980000000     0.424860000000     0.415270000000    -0.654928   
O45      O      0.962230000000     0.659210000000     0.583060000000    -0.36436    
O46      O      0.989310000000     0.305660000000     0.577740000000    -0.356232   
O47      O      0.796290000000     0.579210000000     0.483670000000    -0.376844   
O48      O      0.150520000000     0.592040000000     0.482980000000    -0.368034   
O49      O      0.158020000000     0.389770000000     0.478380000000    -0.36076    
O50      O      0.805270000000     0.377010000000     0.482650000000    -0.376938   
O51      O      0.876370000000     0.470660000000     0.656970000000    -0.364936   
O52      O      0.078430000000     0.490550000000     0.658300000000    -0.350431   
O53      O      0.800630000000     0.473100000000     0.581870000000    -0.374414   
O54      O      0.154010000000     0.492390000000     0.583760000000    -0.363557   
O55      O      0.870410000000     0.655730000000     0.486610000000    -0.366022   
O56      O      0.881730000000     0.302770000000     0.481080000000    -0.370379   
O57      O      0.085810000000     0.311770000000     0.468650000000    -0.363693   
O58      O      0.073180000000     0.664790000000     0.481420000000    -0.348995   
O59      O      0.962670000000     0.583200000000     0.657570000000    -0.343863   
O60      O      0.988090000000     0.379120000000     0.655010000000    -0.365878   
O61      O      0.042840000000     0.421520000000     0.542480000000    -0.50388    
O62      O      0.912950000000     0.543840000000     0.544170000000    -0.512127   
O63      O      0.917530000000     0.417440000000     0.542120000000    -0.658139   
O64      O      0.038160000000     0.549410000000     0.545180000000    -0.661221   
O65      O      0.653630000000     0.985830000000     0.372980000000    -0.365166   
O66      O      0.301830000000     0.977960000000     0.384370000000    -0.375634   
O67      O      0.476470000000     0.883430000000     0.303120000000    -0.359746   
O68      O      0.459720000000     0.084230000000     0.305880000000    -0.375362   
O69      O      0.458160000000     0.160820000000     0.380120000000    -0.337      
O70      O      0.477850000000     0.806670000000     0.376660000000    -0.377007   
O71      O      0.374770000000     0.977360000000     0.306530000000    -0.369472   
O72      O      0.576910000000     0.989370000000     0.298960000000    -0.366199   
O73      O      0.416620000000     0.046800000000     0.419820000000    -0.510904   
O74      O      0.542080000000     0.920130000000     0.415240000000    -0.507829   
O75      O      0.415870000000     0.919710000000     0.419370000000    -0.65392    
O76      O      0.542010000000     0.047710000000     0.414690000000    -0.661166   
O77      O      0.308370000000     0.978880000000     0.587240000000    -0.376521   
O78      O      0.661220000000     0.979260000000     0.576900000000    -0.350238   
O79      O      0.378260000000     0.806660000000     0.488270000000    -0.373725   
O80      O      0.382020000000     0.160490000000     0.483180000000    -0.365321   
O81      O      0.583160000000     0.159830000000     0.470280000000    -0.358753   
O82      O      0.582580000000     0.805480000000     0.471120000000    -0.375923   
O83      O      0.487500000000     0.879340000000     0.656340000000    -0.346544   
O84      O      0.494420000000     0.085810000000     0.657390000000    -0.366567   
O85      O      0.484640000000     0.803610000000     0.581660000000    -0.373607   
O86      O      0.478410000000     0.161490000000     0.583120000000    -0.364694   
O87      O      0.304620000000     0.883610000000     0.493750000000    -0.373203   
O88      O      0.655710000000     0.882260000000     0.466700000000    -0.349239   
O89      O      0.658340000000     0.084930000000     0.469540000000    -0.371183   
O90      O      0.305170000000     0.086700000000     0.485520000000    -0.372966   
O91      O      0.385760000000     0.977620000000     0.660680000000    -0.366565   
O92      O      0.588730000000     0.977250000000     0.654540000000    -0.375226   
O93      O      0.547070000000     0.047520000000     0.542680000000    -0.511894   
O94      O      0.421260000000     0.920620000000     0.545010000000    -0.506626   
O95      O      0.546390000000     0.919330000000     0.541080000000    -0.654277   
O96      O      0.420590000000     0.046770000000     0.546890000000    -0.65367    
O97      O      0.305030000000     0.372040000000     0.971770000000    -0.368277   
O98      O      0.655870000000     0.376570000000     0.985180000000    -0.367912   
O99      O      0.480820000000     0.291510000000     0.893830000000    -0.374982   
O100     O      0.482720000000     0.304010000000     0.096100000000    -0.374806   
O101     O      0.474410000000     0.381610000000     0.168920000000    -0.367393   
O102     O      0.463820000000     0.361410000000     0.814200000000    -0.346614   
O103     O      0.582270000000     0.299610000000     0.987680000000    -0.37589    
O104     O      0.379240000000     0.297030000000     0.987730000000    -0.375648   
O105     O      0.542120000000     0.414700000000     0.051870000000    -0.510469   
O106     O      0.416640000000     0.409690000000     0.924650000000    -0.498742   
O107     O      0.540640000000     0.410360000000     0.922690000000    -0.649096   
O108     O      0.413350000000     0.412960000000     0.049510000000    -0.656142   
O109     O      0.652710000000     0.578940000000     0.981670000000    -0.367242   
O110     O      0.299980000000     0.576390000000     0.990390000000    -0.376013   
O111     O      0.579250000000     0.468140000000     0.805690000000    -0.379021   
O112     O      0.577040000000     0.483470000000     0.160640000000    -0.352363   
O113     O      0.372880000000     0.478230000000     0.159480000000    -0.370649   
O114     O      0.374680000000     0.467250000000     0.804780000000    -0.364696   
O115     O      0.472610000000     0.648310000000     0.876270000000    -0.373026   
O116     O      0.482000000000     0.653940000000     0.080770000000    -0.361332   
O117     O      0.474650000000     0.571830000000     0.801460000000    -0.366377   
O118     O      0.476410000000     0.581190000000     0.158810000000    -0.369512   
O119     O      0.652080000000     0.478180000000     0.882530000000    -0.354582   
O120     O      0.300140000000     0.472830000000     0.880980000000    -0.368895   
O121     O      0.298040000000     0.470870000000     0.083790000000    -0.374926   
O122     O      0.652940000000     0.483120000000     0.086450000000    -0.371453   
O123     O      0.577550000000     0.654420000000     0.978340000000    -0.36873    
O124     O      0.375120000000     0.651260000000     0.988750000000    -0.355104   
O125     O      0.413070000000     0.540370000000     0.044890000000    -0.507958   
O126     O      0.538940000000     0.536060000000     0.917660000000    -0.50562    
O127     O      0.413460000000     0.536150000000     0.917250000000    -0.648423   
O128     O      0.538570000000     0.540460000000     0.045290000000    -0.661464   
Zr1      Zr     0.976100000000     0.979310000000     0.104310000000     1.44606    
Zr2      Zr     0.979550000000     0.852090000000     0.978620000000     1.43297    
Zr3      Zr     0.981540000000     0.104050000000     0.978640000000     1.44084    
Zr4      Zr     0.853940000000     0.978680000000     0.975220000000     1.41476    
Zr5      Zr     0.105520000000     0.976380000000     0.983650000000     1.4455     
Zr6      Zr     0.983940000000     0.978270000000     0.852590000000     1.42662    
Zr7      Zr     0.977060000000     0.486390000000     0.353620000000     1.43775    
Zr8      Zr     0.973280000000     0.609570000000     0.481240000000     1.45173    
Zr9      Zr     0.982020000000     0.358100000000     0.476920000000     1.43765    
Zr10     Zr     0.852270000000     0.479770000000     0.480540000000     1.44142    
Zr11     Zr     0.102740000000     0.489010000000     0.481100000000     1.44567    
Zr12     Zr     0.977710000000     0.481960000000     0.606310000000     1.44876    
Zr13     Zr     0.477140000000     0.983660000000     0.355030000000     1.44641    
Zr14     Zr     0.356120000000     0.984100000000     0.484670000000     1.43778    
Zr15     Zr     0.606240000000     0.983960000000     0.476370000000     1.44407    
Zr16     Zr     0.480980000000     0.856370000000     0.479910000000     1.42876    
Zr17     Zr     0.481400000000     0.109680000000     0.480910000000     1.44618    
Zr18     Zr     0.486180000000     0.982860000000     0.606740000000     1.43146    
Zr19     Zr     0.479970000000     0.349630000000     0.990790000000     1.43056    
Zr20     Zr     0.602050000000     0.476750000000     0.984330000000     1.43989    
Zr21     Zr     0.351630000000     0.474750000000     0.983070000000     1.43163    
Zr22     Zr     0.476460000000     0.469710000000     0.856110000000     1.41393    
Zr23     Zr     0.475470000000     0.478970000000     0.110110000000     1.44741    
Zr24     Zr     0.476430000000     0.600850000000     0.979600000000     1.43785    


