data_structure

_audit_creation_method RASPA-1.0
_audit_creation_date 2023-5-19
_audit_author_name 'Poobodin Mano'

_cell_length_a    21.3196
_cell_length_b    21.3161
_cell_length_c    21.3977
_cell_angle_alpha 90
_cell_angle_beta  90
_cell_angle_gamma 90
_cell_volume      9724.2

_symmetry_cell_setting          triclinic
_symmetry_space_group_name_Hall 'P 1'
_symmetry_space_group_name_H-M  'P 1'
_symmetry_Int_Tables_number     1

_symmetry_equiv_pos_as_xyz 'x,y,z'

loop_
_atom_site_label
_atom_site_type_symbol
_atom_site_fract_x
_atom_site_fract_y
_atom_site_fract_z
_atom_site_charge
C1       C      0.986520000000     0.141250000000     0.141310000000     0.394126   
C2       C      0.992460000000     0.820840000000     0.140200000000     0.394863   
C3       C      0.820180000000     0.970150000000     0.139460000000     0.393893   
C4       C      0.140570000000     0.983880000000     0.142320000000     0.3874     
C5       C      0.976270000000     0.821170000000     0.822000000000     0.3924     
C6       C      0.994220000000     0.141070000000     0.822070000000     0.390488   
C7       C      0.819900000000     0.823520000000     0.970000000000     0.397782   
C8       C      0.138980000000     0.819810000000     0.995590000000     0.395393   
C9       C      0.143800000000     0.139610000000     0.988230000000     0.3949     
C10      C      0.824020000000     0.143480000000     0.975120000000     0.390378   
C11      C      0.822300000000     0.977280000000     0.820840000000     0.39406    
C12      C      0.142780000000     0.973620000000     0.822550000000     0.389978   
C13      C      0.968930000000     0.321230000000     0.324160000000     0.391991   
C14      C      0.974890000000     0.641190000000     0.322220000000     0.388228   
C15      C      0.818770000000     0.468160000000     0.326200000000     0.396948   
C16      C      0.139030000000     0.488150000000     0.321440000000     0.398396   
C17      C      0.997750000000     0.642870000000     0.641030000000     0.392655   
C18      C      0.971430000000     0.322790000000     0.643540000000     0.393521   
C19      C      0.824380000000     0.645750000000     0.473540000000     0.394007   
C20      C      0.144870000000     0.637730000000     0.470320000000     0.393747   
C21      C      0.137130000000     0.317930000000     0.487030000000     0.391966   
C22      C      0.817220000000     0.325450000000     0.490350000000     0.389717   
C23      C      0.823500000000     0.498450000000     0.644360000000     0.392288   
C24      C      0.142970000000     0.470760000000     0.640090000000     0.391674   
C25      C      0.639810000000     0.985030000000     0.320550000000     0.390787   
C26      C      0.319970000000     0.961130000000     0.322710000000     0.39188    
C27      C      0.493720000000     0.815410000000     0.330050000000     0.395755   
C28      C      0.466500000000     0.135830000000     0.315380000000     0.393899   
C29      C      0.321210000000     0.997130000000     0.641100000000     0.392473   
C30      C      0.641820000000     0.002080000000     0.639370000000     0.393822   
C31      C      0.323470000000     0.820500000000     0.495470000000     0.388595   
C32      C      0.318240000000     0.139700000000     0.462460000000     0.396626   
C33      C      0.637070000000     0.146840000000     0.463580000000     0.394747   
C34      C      0.644300000000     0.827350000000     0.492430000000     0.390408   
C35      C      0.490890000000     0.831470000000     0.648340000000     0.389211   
C36      C      0.485260000000     0.152200000000     0.631630000000     0.398081   
C37      C      0.323760000000     0.320050000000     0.966950000000     0.393839   
C38      C      0.642500000000     0.323700000000     0.993920000000     0.396658   
C39      C      0.474750000000     0.327820000000     0.820190000000     0.394644   
C40      C      0.490370000000     0.316530000000     0.137280000000     0.397971   
C41      C      0.639160000000     0.643940000000     0.993390000000     0.391316   
C42      C      0.318950000000     0.639790000000     0.979270000000     0.396756   
C43      C      0.643490000000     0.479350000000     0.825840000000     0.393539   
C44      C      0.637970000000     0.486050000000     0.145970000000     0.388476   
C45      C      0.318050000000     0.467820000000     0.140150000000     0.391022   
C46      C      0.323750000000     0.491410000000     0.821380000000     0.393736   
C47      C      0.477480000000     0.648630000000     0.830380000000     0.393718   
C48      C      0.468380000000     0.636220000000     0.149070000000     0.39124    
C49      C      0.451020000000     0.165470000000     0.203490000000    -0.0146687  
C50      C      0.459170000000     0.248180000000     0.286200000000    -0.0412529  
C51      C      0.497380000000     0.202960000000     0.162890000000    -0.01326    
C52      C      0.511280000000     0.280320000000     0.249080000000     0.0754054  
C53      C      0.521240000000     0.348220000000     0.271730000000    -0.18211    
C54      C      0.457190000000     0.747570000000     0.182080000000    -0.0140694  
C55      C      0.460580000000     0.662270000000     0.262450000000    -0.0411455  
C56      C      0.506250000000     0.784240000000     0.219190000000    -0.0123855  
C57      C      0.509870000000     0.699910000000     0.299540000000     0.0739686  
C58      C      0.509990000000     0.679360000000     0.368510000000    -0.182243   
C59      C      0.512160000000     0.721710000000     0.681310000000    -0.0139619  
C60      C      0.499840000000     0.806000000000     0.761550000000    -0.0405353  
C61      C      0.469080000000     0.678930000000     0.719180000000    -0.0118292  
C62      C      0.456070000000     0.762960000000     0.799540000000     0.0741716  
C63      C      0.455870000000     0.783940000000     0.868450000000    -0.182764   
C64      C      0.469520000000     0.216520000000     0.786840000000    -0.0127305  
C65      C      0.446900000000     0.302240000000     0.710490000000    -0.0393848  
C66      C      0.511660000000     0.184880000000     0.738880000000    -0.0125233  
C67      C      0.486670000000     0.268740000000     0.660360000000     0.0717379  
C68      C      0.460520000000     0.286760000000     0.595500000000    -0.179144   
C69      C      0.785650000000     0.213350000000     0.498840000000    -0.0137582  
C70      C      0.703860000000     0.297920000000     0.495330000000    -0.0414392  
C71      C      0.748730000000     0.176320000000     0.449840000000    -0.0120056  
C72      C      0.669130000000     0.261160000000     0.444120000000     0.0745635  
C73      C      0.600260000000     0.282260000000     0.439870000000    -0.182241   
C74      C      0.756510000000     0.797420000000     0.507090000000    -0.014879   
C75      C      0.673120000000     0.714780000000     0.499110000000    -0.0407165  
C76      C      0.798090000000     0.758800000000     0.462710000000    -0.0118181  
C77      C      0.712250000000     0.680900000000     0.449600000000     0.0746151  
C78      C      0.689970000000     0.612690000000     0.441440000000    -0.181448   
C79      C      0.248450000000     0.286000000000     0.501630000000    -0.0148339  
C80      C      0.164720000000     0.204470000000     0.486530000000    -0.0421185  
C81      C      0.289550000000     0.252100000000     0.453630000000    -0.0121441  
C82      C      0.205770000000     0.173160000000     0.436480000000     0.0754754  
C83      C      0.185810000000     0.104870000000     0.425010000000    -0.184321   
C84      C      0.293410000000     0.708390000000     0.512060000000    -0.0154069  
C85      C      0.210720000000     0.790470000000     0.495990000000    -0.0418037  
C86      C      0.258310000000     0.664910000000     0.466370000000    -0.0132025  
C87      C      0.180870000000     0.749420000000     0.445250000000     0.0743405  
C88      C      0.113260000000     0.770330000000     0.430980000000    -0.182864   
C89      C      0.749150000000     0.501540000000     0.177820000000    -0.0144378  
C90      C      0.664990000000     0.489920000000     0.259030000000    -0.0414695  
C91      C      0.790440000000     0.455710000000     0.214500000000    -0.0121214  
C92      C      0.706120000000     0.441920000000     0.293420000000     0.0746495  
C93      C      0.685260000000     0.434900000000     0.361850000000    -0.183419   
C94      C      0.205700000000     0.454640000000     0.170000000000    -0.0142935  
C95      C      0.289490000000     0.456380000000     0.252020000000    -0.041027   
C96      C      0.166630000000     0.500490000000     0.209390000000    -0.0128008  
C97      C      0.252720000000     0.506440000000     0.287900000000     0.0760043  
C98      C      0.275120000000     0.509810000000     0.356260000000    -0.183523   
C99      C      0.174610000000     0.453260000000     0.750790000000    -0.0142323  
C100     C      0.256180000000     0.463830000000     0.667430000000    -0.0407186  
C101     C      0.211520000000     0.498920000000     0.792060000000    -0.012203   
C102     C      0.291350000000     0.511940000000     0.707830000000     0.0744069  
C103     C      0.360310000000     0.516440000000     0.686730000000    -0.182133   
C104     C      0.793750000000     0.516730000000     0.755720000000    -0.0144556  
C105     C      0.710990000000     0.507350000000     0.673270000000    -0.0406163  
C106     C      0.756190000000     0.471870000000     0.797710000000    -0.0127086  
C107     C      0.677020000000     0.458170000000     0.713050000000     0.0741063  
C108     C      0.608350000000     0.451030000000     0.691610000000    -0.181146   
C109     C      0.669920000000     0.755930000000     0.007250000000    -0.0114869  
C110     C      0.752030000000     0.672190000000     0.997860000000    -0.0438138  
C111     C      0.706980000000     0.796660000000     0.960970000000    -0.0141963  
C112     C      0.785150000000     0.711010000000     0.947570000000     0.0770677  
C113     C      0.853440000000     0.689200000000     0.939070000000    -0.184637   
C114     C      0.794140000000     0.255860000000     0.962800000000    -0.0169757  
C115     C      0.711580000000     0.172130000000     0.965940000000    -0.0433082  
C116     C      0.754650000000     0.295790000000     0.007740000000    -0.00825638 
C117     C      0.675480000000     0.210250000000     0.014700000000     0.0782763  
C118     C      0.606760000000     0.188440000000     0.018030000000    -0.183145   
C119     C      0.249270000000     0.788490000000     0.017250000000    -0.0118198  
C120     C      0.165650000000     0.706960000000     0.006450000000    -0.0367597  
C121     C      0.290510000000     0.752070000000     0.971370000000    -0.0138201  
C122     C      0.205570000000     0.672540000000     0.957800000000     0.0733895  
C123     C      0.184220000000     0.603770000000     0.951920000000    -0.182842   
C124     C      0.212800000000     0.288380000000     0.948760000000    -0.0137569  
C125     C      0.296760000000     0.206940000000     0.958030000000    -0.0431819  
C126     C      0.172550000000     0.251990000000     0.995690000000    -0.0142872  
C127     C      0.257650000000     0.172560000000     0.007530000000     0.0781728  
C128     C      0.279000000000     0.103780000000     0.013220000000    -0.181986   
C129     C      0.753980000000     0.016470000000     0.669990000000    -0.0127786  
C130     C      0.670320000000     0.012050000000     0.751640000000    -0.0397692  
C131     C      0.793830000000     0.970380000000     0.708470000000    -0.0149613  
C132     C      0.707930000000     0.962090000000     0.787190000000     0.0742551  
C133     C      0.685690000000     0.958700000000     0.855610000000    -0.185313   
C134     C      0.254890000000     0.962630000000     0.791370000000    -0.015797   
C135     C      0.170390000000     0.966970000000     0.709890000000    -0.0424815  
C136     C      0.293560000000     0.009650000000     0.753100000000    -0.0106615  
C137     C      0.207760000000     0.017260000000     0.674740000000     0.0761153  
C138     C      0.185750000000     0.022170000000     0.606370000000    -0.179895   
C139     C      0.252840000000     0.993200000000     0.173270000000    -0.0163932  
C140     C      0.168620000000     0.987850000000     0.255200000000    -0.0433889  
C141     C      0.291920000000     0.946180000000     0.211080000000    -0.0117545  
C142     C      0.206860000000     0.937600000000     0.289670000000     0.0743149  
C143     C      0.185600000000     0.931120000000     0.358050000000    -0.183086   
C144     C      0.670300000000     0.002140000000     0.209570000000    -0.00965975 
C145     C      0.752670000000     0.987760000000     0.292420000000    -0.0431659  
C146     C      0.707570000000     0.958660000000     0.166200000000    -0.0142384  
C147     C      0.786060000000     0.940470000000     0.250100000000     0.0755832  
C148     C      0.854470000000     0.930740000000     0.270930000000    -0.182674   
C149     C      0.011460000000     0.252660000000     0.791500000000    -0.0125183  
C150     C      0.999860000000     0.169580000000     0.709600000000    -0.0453985  
C151     C      0.964840000000     0.294250000000     0.755790000000    -0.0142171  
C152     C      0.949830000000     0.209540000000     0.676990000000     0.0763584  
C153     C      0.941330000000     0.188370000000     0.608720000000    -0.183895   
C154     C      0.966780000000     0.708940000000     0.791150000000    -0.016477   
C155     C      0.969930000000     0.793520000000     0.709390000000    -0.0433996  
C156     C      0.013640000000     0.670620000000     0.752510000000    -0.0100582  
C157     C      0.020020000000     0.756140000000     0.674030000000     0.0770775  
C158     C      0.024720000000     0.777860000000     0.605640000000    -0.180643   
C159     C      0.956520000000     0.671990000000     0.211360000000    -0.017668   
C160     C      0.972340000000     0.754220000000     0.293740000000    -0.0433311  
C161     C      0.001030000000     0.708080000000     0.167910000000    -0.00769956 
C162     C      0.020470000000     0.786670000000     0.251480000000     0.0761446  
C163     C      0.031090000000     0.854970000000     0.272110000000    -0.181019   
C164     C      0.952830000000     0.209600000000     0.293230000000    -0.0141002  
C165     C      0.957880000000     0.293740000000     0.211890000000    -0.0433002  
C166     C      0.996820000000     0.168910000000     0.253450000000    -0.0147934  
C167     C      0.005670000000     0.254920000000     0.174890000000     0.0781548  
C168     C      0.007820000000     0.277410000000     0.106470000000    -0.18157    
H1       H      0.891090000000     0.890350000000     0.069820000000     0.208245   
H2       H      0.070980000000     0.069200000000     0.070680000000     0.212451   
H3       H      0.894040000000     0.071700000000     0.890420000000     0.208163   
H4       H      0.071390000000     0.889030000000     0.892880000000     0.207998   
H5       H      0.891450000000     0.571260000000     0.393180000000     0.210639   
H6       H      0.068150000000     0.388960000000     0.391900000000     0.205229   
H7       H      0.889880000000     0.396160000000     0.574320000000     0.209424   
H8       H      0.075170000000     0.569570000000     0.569520000000     0.208028   
H9       H      0.393460000000     0.886040000000     0.397320000000     0.207779   
H10      H      0.566800000000     0.070540000000     0.386360000000     0.21146    
H11      H      0.572930000000     0.901670000000     0.574520000000     0.210038   
H12      H      0.389650000000     0.077040000000     0.565750000000     0.208037   
H13      H      0.572920000000     0.394750000000     0.893100000000     0.207387   
H14      H      0.391040000000     0.386620000000     0.068650000000     0.208699   
H15      H      0.392550000000     0.572880000000     0.896880000000     0.212577   
H16      H      0.567090000000     0.570160000000     0.077260000000     0.210321   
H17      H      0.477330000000     0.376120000000     0.268580000000     0.0703495  
H18      H      0.413370000000     0.269070000000     0.272420000000     0.0443993  
H19      H      0.402640000000     0.178700000000     0.189220000000     0.0363727  
H20      H      0.484410000000     0.195600000000     0.113170000000     0.0356067  
H21      H      0.465680000000     0.257290000000     0.336930000000     0.0446537  
H22      H      0.535680000000     0.347920000000     0.321610000000     0.0531224  
H23      H      0.555550000000     0.255150000000     0.260930000000     0.0181428  
H24      H      0.456990000000     0.114620000000     0.193720000000     0.0386262  
H25      H      0.544960000000     0.182710000000     0.169790000000     0.0336881  
H26      H      0.559960000000     0.370890000000     0.245350000000     0.0774822  
H27      H      0.463940000000     0.688630000000     0.391040000000     0.0710457  
H28      H      0.413260000000     0.673800000000     0.281130000000     0.043143   
H29      H      0.409900000000     0.763950000000     0.196770000000     0.0379555  
H30      H      0.500030000000     0.834920000000     0.208960000000     0.039882   
H31      H      0.468420000000     0.611230000000     0.269790000000     0.0449016  
H32      H      0.518940000000     0.628090000000     0.371610000000     0.0540246  
H33      H      0.556360000000     0.685610000000     0.280480000000     0.0180023  
H34      H      0.462660000000     0.758760000000     0.131660000000     0.0393862  
H35      H      0.553480000000     0.770750000000     0.201610000000     0.0367089  
H36      H      0.548680000000     0.702670000000     0.394360000000     0.0749407  
H37      H      0.502580000000     0.776800000000     0.890410000000     0.07358    
H38      H      0.548560000000     0.800360000000     0.779340000000     0.0430548  
H39      H      0.561460000000     0.711480000000     0.694910000000     0.0372709  
H40      H      0.483090000000     0.629690000000     0.709480000000     0.0352353  
H41      H      0.485940000000     0.855740000000     0.768820000000     0.0451029  
H42      H      0.444560000000     0.834730000000     0.871620000000     0.0565742  
H43      H      0.407800000000     0.771990000000     0.781750000000     0.0185923  
H44      H      0.507130000000     0.709820000000     0.631000000000     0.0385768  
H45      H      0.420310000000     0.684970000000     0.701690000000     0.0346106  
H46      H      0.418520000000     0.759240000000     0.894900000000     0.0751552  
H47      H      0.414870000000     0.263260000000     0.586460000000     0.0700553  
H48      H      0.397000000000     0.288090000000     0.704440000000     0.043036   
H49      H      0.421590000000     0.196300000000     0.782880000000     0.0384723  
H50      H      0.512920000000     0.133840000000     0.749260000000     0.0403666  
H51      H      0.449300000000     0.353790000000     0.702830000000     0.0427869  
H52      H      0.452810000000     0.338250000000     0.592530000000     0.0530816  
H53      H      0.534810000000     0.288730000000     0.663650000000     0.0162523  
H54      H      0.487700000000     0.205660000000     0.834310000000     0.0372769  
H55      H      0.560210000000     0.202840000000     0.745500000000     0.0361314  
H56      H      0.494820000000     0.275750000000     0.558230000000     0.0691062  
H57      H      0.575610000000     0.274880000000     0.484870000000     0.070405   
H58      H      0.683880000000     0.284620000000     0.541510000000     0.0437296  
H59      H      0.771600000000     0.196260000000     0.545910000000     0.0363686  
H60      H      0.758360000000     0.125570000000     0.456590000000     0.0395853  
H61      H      0.695940000000     0.349040000000     0.488960000000     0.0421479  
H62      H      0.598050000000     0.333210000000     0.429380000000     0.0518287  
H63      H      0.690980000000     0.275330000000     0.398950000000     0.0174132  
H64      H      0.836320000000     0.202960000000     0.492740000000     0.0362779  
H65      H      0.767110000000     0.189210000000     0.402900000000     0.0367307  
H66      H      0.575920000000     0.257760000000     0.401000000000     0.0723864  
H67      H      0.692790000000     0.586100000000     0.486020000000     0.0703658  
H68      H      0.684670000000     0.694930000000     0.545820000000     0.0448004  
H69      H      0.769990000000     0.785520000000     0.555880000000     0.036917   
H70      H      0.847890000000     0.766920000000     0.475660000000     0.037096   
H71      H      0.622470000000     0.706090000000     0.490420000000     0.0439332  
H72      H      0.640100000000     0.612250000000     0.426320000000     0.0536924  
H73      H      0.701610000000     0.704430000000     0.404300000000     0.0189472  
H74      H      0.766620000000     0.848060000000     0.499990000000     0.0381862  
H75      H      0.791540000000     0.777340000000     0.414550000000     0.034701   
H76      H      0.717140000000     0.589230000000     0.403840000000     0.0711296  
H77      H      0.187520000000     0.076710000000     0.468600000000     0.0679889  
H78      H      0.174050000000     0.181550000000     0.532320000000     0.0423381  
H79      H      0.261820000000     0.268980000000     0.548920000000     0.0357836  
H80      H      0.339470000000     0.261150000000     0.465420000000     0.0361967  
H81      H      0.114410000000     0.197160000000     0.474940000000     0.0445868  
H82      H      0.136680000000     0.103660000000     0.407710000000     0.0563313  
H83      H      0.195290000000     0.198220000000     0.391960000000     0.0178677  
H84      H      0.258930000000     0.337020000000     0.499870000000     0.0377374  
H85      H      0.280650000000     0.273330000000     0.406970000000     0.0350303  
H86      H      0.215550000000     0.083720000000     0.388000000000     0.0768212  
H87      H      0.083370000000     0.769430000000     0.473350000000     0.0684862  
H88      H      0.187700000000     0.779880000000     0.541460000000     0.0422577  
H89      H      0.278300000000     0.696170000000     0.560280000000     0.0362431  
H90      H      0.265780000000     0.615680000000     0.481700000000     0.0348766  
H91      H      0.202130000000     0.840770000000     0.485400000000     0.0416888  
H92      H      0.113500000000     0.819400000000     0.413740000000     0.0528031  
H93      H      0.207680000000     0.759040000000     0.401550000000     0.0174822  
H94      H      0.344500000000     0.698670000000     0.508810000000     0.0371191  
H95      H      0.280250000000     0.669960000000     0.419470000000     0.0328081  
H96      H      0.092780000000     0.741090000000     0.393190000000     0.0783733  
H97      H      0.687920000000     0.480120000000     0.387340000000     0.0682497  
H98      H      0.673700000000     0.537170000000     0.279390000000     0.0408979  
H99      H      0.761930000000     0.550050000000     0.192120000000     0.0358293  
H100     H      0.840290000000     0.467680000000     0.205290000000     0.0394517  
H101     H      0.614710000000     0.478420000000     0.266600000000     0.0425473  
H102     H      0.635610000000     0.419220000000     0.363390000000     0.0527623  
H103     H      0.696090000000     0.395700000000     0.271190000000     0.0188579  
H104     H      0.760070000000     0.496820000000     0.127270000000     0.0399598  
H105     H      0.782310000000     0.407720000000     0.195740000000     0.0380934  
H106     H      0.713490000000     0.398240000000     0.385580000000     0.078619   
H107     H      0.269150000000     0.464080000000     0.380490000000     0.0713926  
H108     H      0.275800000000     0.409340000000     0.270010000000     0.0422181  
H109     H      0.190120000000     0.406160000000     0.181300000000     0.0349616  
H110     H      0.116230000000     0.490650000000     0.200690000000     0.0391765  
H111     H      0.340540000000     0.462300000000     0.260790000000     0.0448034  
H112     H      0.325890000000     0.521570000000     0.357550000000     0.0563954  
H113     H      0.265910000000     0.552380000000     0.266760000000     0.0210186  
H114     H      0.195630000000     0.463010000000     0.119750000000     0.0379558  
H115     H      0.176150000000     0.548840000000     0.192280000000     0.037915   
H116     H      0.250520000000     0.548030000000     0.381520000000     0.0792215  
H117     H      0.385090000000     0.470990000000     0.692920000000     0.0720078  
H118     H      0.275840000000     0.416410000000     0.676920000000     0.0445882  
H119     H      0.188900000000     0.404700000000     0.763390000000     0.0394249  
H120     H      0.202370000000     0.486320000000     0.841580000000     0.03685    
H121     H      0.264150000000     0.474370000000     0.617170000000     0.0450095  
H122     H      0.362450000000     0.528600000000     0.636280000000     0.0554924  
H123     H      0.270120000000     0.558440000000     0.696930000000     0.0173115  
H124     H      0.123860000000     0.458000000000     0.761570000000     0.0398125  
H125     H      0.192450000000     0.546900000000     0.784480000000     0.0332554  
H126     H      0.384770000000     0.554880000000     0.711870000000     0.0738952  
H127     H      0.582380000000     0.496060000000     0.695500000000     0.0708256  
H128     H      0.691340000000     0.554420000000     0.684380000000     0.0450946  
H129     H      0.780790000000     0.565590000000     0.768560000000     0.0380024  
H130     H      0.764670000000     0.485370000000     0.847140000000     0.0384549  
H131     H      0.702090000000     0.498130000000     0.622910000000     0.0444004  
H132     H      0.607110000000     0.436720000000     0.641680000000     0.0555398  
H133     H      0.699780000000     0.412370000000     0.702180000000     0.0179935  
H134     H      0.844540000000     0.510850000000     0.765760000000     0.0390127  
H135     H      0.775220000000     0.423720000000     0.791220000000     0.0348482  
H136     H      0.584510000000     0.413130000000     0.718190000000     0.072737   
H137     H      0.880110000000     0.691810000000     0.983610000000     0.0714785  
H138     H      0.772860000000     0.683840000000     0.044120000000     0.0448609  
H139     H      0.683710000000     0.769880000000     0.055410000000     0.0353591  
H140     H      0.698870000000     0.846620000000     0.973280000000     0.0357207  
H141     H      0.760370000000     0.621460000000     0.989190000000     0.0469589  
H142     H      0.854110000000     0.639460000000     0.923540000000     0.0582456  
H143     H      0.761230000000     0.699710000000     0.902630000000     0.0205523  
H144     H      0.619120000000     0.766210000000     0.001830000000     0.0376885  
H145     H      0.687270000000     0.788980000000     0.913450000000     0.0354982  
H146     H      0.876710000000     0.716910000000     0.901800000000     0.0794376  
H147     H      0.582970000000     0.192910000000     0.972040000000     0.0708864  
H148     H      0.693570000000     0.184430000000     0.918680000000     0.0425589  
H149     H      0.783100000000     0.270780000000     0.914230000000     0.035914   
H150     H      0.763670000000     0.346010000000     0.997210000000     0.0371688  
H151     H      0.702780000000     0.121270000000     0.973360000000     0.0448011  
H152     H      0.604930000000     0.138160000000     0.031670000000     0.0581263  
H153     H      0.696290000000     0.197920000000     0.060880000000     0.020317   
H154     H      0.844560000000     0.265920000000     0.971280000000     0.0380214  
H155     H      0.771510000000     0.286860000000     0.056130000000     0.0369031  
H156     H      0.581360000000     0.214810000000     0.054780000000     0.0807936  
H157     H      0.189150000000     0.578330000000     0.996990000000     0.0732127  
H158     H      0.176180000000     0.687180000000     0.053430000000     0.0456911  
H159     H      0.261730000000     0.773450000000     0.065450000000     0.0389964  
H160     H      0.340250000000     0.760950000000     0.983950000000     0.0365036  
H161     H      0.115050000000     0.698780000000     0.996910000000     0.0450282  
H162     H      0.133880000000     0.602100000000     0.938550000000     0.0574135  
H163     H      0.194580000000     0.694680000000     0.911900000000     0.0177694  
H164     H      0.260150000000     0.839310000000     0.013280000000     0.0395211  
H165     H      0.282830000000     0.771580000000     0.923760000000     0.0336929  
H166     H      0.210360000000     0.579760000000     0.913980000000     0.0752167  
H167     H      0.273550000000     0.078320000000     0.968220000000     0.0726462  
H168     H      0.285540000000     0.186890000000     0.911330000000     0.0462653  
H169     H      0.199150000000     0.273290000000     0.900900000000     0.0393396  
H170     H      0.122500000000     0.260850000000     0.984360000000     0.0373719  
H171     H      0.347510000000     0.198910000000     0.966860000000     0.0462733  
H172     H      0.329500000000     0.102100000000     0.026010000000     0.0578735  
H173     H      0.269560000000     0.194790000000     0.053150000000     0.017119   
H174     H      0.201990000000     0.339190000000     0.952920000000     0.0389731  
H175     H      0.181390000000     0.271560000000     0.043080000000     0.0351285  
H176     H      0.253240000000     0.079820000000     0.051440000000     0.0756215  
H177     H      0.693400000000     0.003930000000     0.880270000000     0.07358    
H178     H      0.683180000000     0.059090000000     0.770240000000     0.0434002  
H179     H      0.768760000000     0.064930000000     0.682390000000     0.0360744  
H180     H      0.844040000000     0.981320000000     0.699950000000     0.0383571  
H181     H      0.619340000000     0.005200000000     0.760160000000     0.0464779  
H182     H      0.634570000000     0.948580000000     0.857110000000     0.0568051  
H183     H      0.694940000000     0.916140000000     0.766000000000     0.0194744  
H184     H      0.764320000000     0.009420000000     0.619590000000     0.038953   
H185     H      0.785180000000     0.922280000000     0.690240000000     0.036974   
H186     H      0.709010000000     0.919340000000     0.880340000000     0.0795691  
H187     H      0.190750000000     0.976690000000     0.581470000000     0.0690836  
H188     H      0.182910000000     0.920150000000     0.690550000000     0.0442926  
H189     H      0.270490000000     0.914510000000     0.778620000000     0.037152   
H190     H      0.344040000000     0.000260000000     0.761840000000     0.039245   
H191     H      0.119410000000     0.974240000000     0.701790000000     0.0462187  
H192     H      0.135270000000     0.035120000000     0.605070000000     0.0559912  
H193     H      0.194990000000     0.062940000000     0.696660000000     0.019984   
H194     H      0.265310000000     0.969640000000     0.841760000000     0.0372658  
H195     H      0.283400000000     0.057550000000     0.771090000000     0.0360544  
H196     H      0.211480000000     0.060160000000     0.581780000000     0.0707583  
H197     H      0.189880000000     0.975950000000     0.383830000000     0.0685755  
H198     H      0.180640000000     0.034590000000     0.275020000000     0.0437896  
H199     H      0.268470000000     0.041340000000     0.185880000000     0.037566   
H200     H      0.342330000000     0.955560000000     0.201930000000     0.0387035  
H201     H      0.117750000000     0.979970000000     0.263330000000     0.0430218  
H202     H      0.135370000000     0.917680000000     0.359530000000     0.0519796  
H203     H      0.194510000000     0.892060000000     0.267210000000     0.0176699  
H204     H      0.263060000000     0.986130000000     0.122860000000     0.0368143  
H205     H      0.281650000000     0.898290000000     0.193110000000     0.0359876  
H206     H      0.212370000000     0.893300000000     0.381720000000     0.072262   
H207     H      0.881120000000     0.975530000000     0.270720000000     0.0702842  
H208     H      0.773480000000     0.035000000000     0.284720000000     0.0465578  
H209     H      0.683480000000     0.051370000000     0.198480000000     0.0365367  
H210     H      0.699040000000     0.973680000000     0.117220000000     0.0386003  
H211     H      0.760670000000     0.974760000000     0.342100000000     0.0469879  
H212     H      0.855450000000     0.912310000000     0.319510000000     0.0561545  
H213     H      0.762490000000     0.894500000000     0.258240000000     0.0189938  
H214     H      0.619530000000     0.996830000000     0.199120000000     0.0368489  
H215     H      0.688510000000     0.910340000000     0.171210000000     0.036012   
H216     H      0.877530000000     0.894880000000     0.241100000000     0.0713342  
H217     H      0.985890000000     0.192070000000     0.582020000000     0.0729132  
H218     H      0.046380000000     0.180520000000     0.688680000000     0.0479956  
H219     H      0.059660000000     0.265870000000     0.776600000000     0.0391681  
H220     H      0.977570000000     0.344050000000     0.764300000000     0.0393267  
H221     H      0.990220000000     0.119020000000     0.701240000000     0.0463124  
H222     H      0.926570000000     0.138380000000     0.607520000000     0.0571727  
H223     H      0.904580000000     0.198400000000     0.700600000000     0.0172423  
H224     H      0.007530000000     0.262900000000     0.842250000000     0.0399237  
H225     H      0.917380000000     0.286610000000     0.775980000000     0.0351026  
H226     H      0.903300000000     0.215610000000     0.586000000000     0.0754866  
H227     H      0.979090000000     0.773220000000     0.580970000000     0.0699594  
H228     H      0.923020000000     0.781020000000     0.690300000000     0.0465159  
H229     H      0.918650000000     0.692820000000     0.779190000000     0.0374075  
H230     H      0.005030000000     0.620050000000     0.761630000000     0.0392673  
H231     H      0.977240000000     0.844500000000     0.701260000000     0.0466037  
H232     H      0.038210000000     0.828200000000     0.604080000000     0.0556673  
H233     H      0.065800000000     0.768950000000     0.695720000000     0.0173358  
H234     H      0.974800000000     0.698680000000     0.841410000000     0.0353675  
H235     H      0.061660000000     0.681410000000     0.769780000000     0.0339162  
H236     H      0.062310000000     0.751510000000     0.581170000000     0.0708098  
H237     H      0.987050000000     0.882610000000     0.270680000000     0.0668293  
H238     H      0.925510000000     0.775730000000     0.285460000000     0.0411688  
H239     H      0.907680000000     0.686510000000     0.200250000000     0.0354762  
H240     H      0.986080000000     0.699530000000     0.118920000000     0.0362607  
H241     H      0.984780000000     0.762340000000     0.343530000000     0.0428432  
H242     H      0.048010000000     0.855750000000     0.321150000000     0.0527731  
H243     H      0.065990000000     0.762410000000     0.260070000000     0.0190667  
H244     H      0.960480000000     0.621070000000     0.201000000000     0.039254   
H245     H      0.048860000000     0.687920000000     0.173230000000     0.0372143  
H246     H      0.068140000000     0.877130000000     0.243140000000     0.0791514  
H247     H      0.961880000000     0.270580000000     0.082870000000     0.0731926  
H248     H      0.910030000000     0.282640000000     0.194270000000     0.0464544  
H249     H      0.903670000000     0.196230000000     0.282020000000     0.0385636  
H250     H      0.984870000000     0.118950000000     0.262130000000     0.0379731  
H251     H      0.966220000000     0.344530000000     0.203550000000     0.0468819  
H252     H      0.018770000000     0.328360000000     0.104920000000     0.0581769  
H253     H      0.052560000000     0.266340000000     0.194910000000     0.0172831  
H254     H      0.961000000000     0.198790000000     0.343370000000     0.0375658  
H255     H      0.045580000000     0.176270000000     0.270440000000     0.0355903  
H256     H      0.046200000000     0.253580000000     0.080640000000     0.0758535  
N1       N      0.498650000000     0.270060000000     0.181330000000    -0.177029   
N2       N      0.459180000000     0.180830000000     0.270180000000    -0.163029   
N3       N      0.501780000000     0.768300000000     0.286430000000    -0.175426   
N4       N      0.462850000000     0.680020000000     0.195780000000    -0.162512   
N5       N      0.471090000000     0.695610000000     0.786330000000    -0.175767   
N6       N      0.498460000000     0.788060000000     0.695100000000    -0.162562   
N7       N      0.490840000000     0.200080000000     0.674600000000    -0.175701   
N8       N      0.466790000000     0.284190000000     0.773890000000    -0.164178   
N9       N      0.681410000000     0.192840000000     0.453240000000    -0.175925   
N10      N      0.770950000000     0.280910000000     0.494230000000    -0.163534   
N11      N      0.779910000000     0.691710000000     0.463700000000    -0.176346   
N12      N      0.689560000000     0.782000000000     0.498330000000    -0.162836   
N13      N      0.273010000000     0.184690000000     0.451680000000    -0.176647   
N14      N      0.181530000000     0.271530000000     0.490940000000    -0.16287    
N15      N      0.191150000000     0.682270000000     0.461890000000    -0.176198   
N16      N      0.278080000000     0.774980000000     0.500450000000    -0.162512   
N17      N      0.773430000000     0.456920000000     0.281570000000    -0.17585    
N18      N      0.682250000000     0.490970000000     0.192220000000    -0.162812   
N19      N      0.184390000000     0.496560000000     0.276250000000    -0.176236   
N20      N      0.272960000000     0.460470000000     0.185240000000    -0.163498   
N21      N      0.278960000000     0.498510000000     0.775300000000    -0.175874   
N22      N      0.189130000000     0.464050000000     0.684280000000    -0.16236    
N23      N      0.688880000000     0.471970000000     0.780470000000    -0.176299   
N24      N      0.778250000000     0.506600000000     0.689250000000    -0.16264    
N25      N      0.774130000000     0.778780000000     0.960850000000    -0.176793   
N26      N      0.684870000000     0.688890000000     0.998490000000    -0.163977   
N27      N      0.687560000000     0.278310000000     0.003590000000    -0.175616   
N28      N      0.778630000000     0.188680000000     0.969460000000    -0.163234   
N29      N      0.273230000000     0.684720000000     0.971390000000    -0.177091   
N30      N      0.182690000000     0.773940000000     0.005810000000    -0.162844   
N31      N      0.189700000000     0.184620000000     0.995380000000    -0.17732    
N32      N      0.279750000000     0.273960000000     0.958460000000    -0.162862   
N33      N      0.776350000000     0.972200000000     0.775540000000    -0.174992   
N34      N      0.686780000000     0.009260000000     0.684810000000    -0.162641   
N35      N      0.275940000000     0.006590000000     0.686190000000    -0.175416   
N36      N      0.187520000000     0.968770000000     0.776730000000    -0.162778   
N37      N      0.274800000000     0.949280000000     0.278040000000    -0.176289   
N38      N      0.185450000000     0.987060000000     0.188240000000    -0.162373   
N39      N      0.774730000000     0.958460000000     0.183740000000    -0.176824   
N40      N      0.685520000000     0.989710000000     0.275760000000    -0.163719   
N41      N      0.963630000000     0.277240000000     0.688690000000    -0.176114   
N42      N      0.001090000000     0.185850000000     0.776540000000    -0.160382   
N43      N      0.009280000000     0.688050000000     0.685680000000    -0.175779   
N44      N      0.972060000000     0.776370000000     0.776220000000    -0.163024   
N45      N      0.002820000000     0.775400000000     0.184960000000    -0.175292   
N46      N      0.969450000000     0.687000000000     0.277490000000    -0.162671   
N47      N      0.993600000000     0.186870000000     0.186560000000    -0.176778   
N48      N      0.961560000000     0.276600000000     0.278550000000    -0.162557   
O1       O      0.984780000000     0.157930000000     0.083400000000    -0.381289   
O2       O      0.986070000000     0.802930000000     0.082760000000    -0.377818   
O3       O      0.877960000000     0.973970000000     0.157030000000    -0.386953   
O4       O      0.082310000000     0.982820000000     0.159240000000    -0.375924   
O5       O      0.158860000000     0.983020000000     0.084620000000    -0.374551   
O6       O      0.802790000000     0.974590000000     0.081680000000    -0.38194    
O7       O      0.990710000000     0.878920000000     0.157080000000    -0.380908   
O8       O      0.983730000000     0.083270000000     0.159120000000    -0.379903   
O9       O      0.043430000000     0.917970000000     0.044360000000    -0.503127   
O10      O      0.917790000000     0.046520000000     0.044980000000    -0.503083   
O11      O      0.916950000000     0.917550000000     0.044570000000    -0.649697   
O12      O      0.044880000000     0.043390000000     0.044320000000    -0.649145   
O13      O      0.978180000000     0.803050000000     0.879680000000    -0.381713   
O14      O      0.993270000000     0.159080000000     0.879780000000    -0.377089   
O15      O      0.802870000000     0.881720000000     0.971710000000    -0.377379   
O16      O      0.157700000000     0.877470000000     0.994320000000    -0.379051   
O17      O      0.160180000000     0.081500000000     0.984710000000    -0.38264    
O18      O      0.806130000000     0.085550000000     0.977990000000    -0.382266   
O19      O      0.880450000000     0.978700000000     0.803190000000    -0.37563    
O20      O      0.084730000000     0.975920000000     0.805280000000    -0.379263   
O21      O      0.805590000000     0.979690000000     0.878680000000    -0.378539   
O22      O      0.160790000000     0.974710000000     0.880370000000    -0.381261   
O23      O      0.877430000000     0.805670000000     0.975680000000    -0.384252   
O24      O      0.882130000000     0.160990000000     0.975950000000    -0.381898   
O25      O      0.085930000000     0.157930000000     0.986730000000    -0.378123   
O26      O      0.081250000000     0.802800000000     0.988770000000    -0.379961   
O27      O      0.977760000000     0.879270000000     0.804840000000    -0.378043   
O28      O      0.989460000000     0.083120000000     0.804720000000    -0.379759   
O29      O      0.046750000000     0.044050000000     0.918290000000    -0.50279    
O30      O      0.918660000000     0.919130000000     0.918490000000    -0.509546   
O31      O      0.919330000000     0.045540000000     0.917310000000    -0.650479   
O32      O      0.045560000000     0.916210000000     0.918190000000    -0.647142   
O33      O      0.969370000000     0.303410000000     0.382020000000    -0.377459   
O34      O      0.980300000000     0.658690000000     0.379850000000    -0.377952   
O35      O      0.876440000000     0.472170000000     0.307770000000    -0.375157   
O36      O      0.080860000000     0.487440000000     0.304120000000    -0.379307   
O37      O      0.156340000000     0.482520000000     0.378850000000    -0.384011   
O38      O      0.802220000000     0.473140000000     0.384000000000    -0.38099    
O39      O      0.973040000000     0.583100000000     0.304620000000    -0.378671   
O40      O      0.974210000000     0.379000000000     0.306630000000    -0.380286   
O41      O      0.044450000000     0.543170000000     0.418710000000    -0.506659   
O42      O      0.915820000000     0.420070000000     0.421310000000    -0.507695   
O43      O      0.917840000000     0.545880000000     0.419690000000    -0.652091   
O44      O      0.042840000000     0.415750000000     0.418170000000    -0.645984   
O45      O      0.991890000000     0.659740000000     0.583370000000    -0.385117   
O46      O      0.974510000000     0.305780000000     0.585810000000    -0.380689   
O47      O      0.806450000000     0.588020000000     0.476190000000    -0.385507   
O48      O      0.161630000000     0.579560000000     0.475510000000    -0.378915   
O49      O      0.156090000000     0.375550000000     0.485250000000    -0.379483   
O50      O      0.800830000000     0.383920000000     0.490110000000    -0.380559   
O51      O      0.881580000000     0.495700000000     0.661800000000    -0.376112   
O52      O      0.085210000000     0.471840000000     0.658670000000    -0.374487   
O53      O      0.805460000000     0.494310000000     0.586800000000    -0.381206   
O54      O      0.159740000000     0.475050000000     0.582150000000    -0.37905    
O55      O      0.882600000000     0.662600000000     0.477770000000    -0.378901   
O56      O      0.874800000000     0.306560000000     0.487740000000    -0.378249   
O57      O      0.078720000000     0.301530000000     0.485680000000    -0.380518   
O58      O      0.087090000000     0.655730000000     0.472110000000    -0.379722   
O59      O      0.995040000000     0.585010000000     0.659120000000    -0.380539   
O60      O      0.974010000000     0.380890000000     0.661220000000    -0.377714   
O61      O      0.043260000000     0.417550000000     0.545640000000    -0.505056   
O62      O      0.919360000000     0.547700000000     0.547090000000    -0.504863   
O63      O      0.916890000000     0.420660000000     0.547590000000    -0.650345   
O64      O      0.046930000000     0.544300000000     0.544810000000    -0.647797   
O65      O      0.657390000000     0.983120000000     0.378360000000    -0.378709   
O66      O      0.303060000000     0.967350000000     0.380330000000    -0.381385   
O67      O      0.491010000000     0.872590000000     0.309900000000    -0.377882   
O68      O      0.467980000000     0.077270000000     0.299050000000    -0.373168   
O69      O      0.471250000000     0.154880000000     0.372360000000    -0.382301   
O70      O      0.489850000000     0.800960000000     0.388520000000    -0.381884   
O71      O      0.377850000000     0.964170000000     0.304640000000    -0.378983   
O72      O      0.581780000000     0.984290000000     0.302750000000    -0.379655   
O73      O      0.415880000000     0.041850000000     0.415130000000    -0.506055   
O74      O      0.545260000000     0.918580000000     0.420820000000    -0.502256   
O75      O      0.418480000000     0.915160000000     0.421260000000    -0.650123   
O76      O      0.542350000000     0.044660000000     0.414210000000    -0.651407   
O77      O      0.304090000000     0.991290000000     0.583520000000    -0.383612   
O78      O      0.659650000000     0.999350000000     0.581590000000    -0.377597   
O79      O      0.381860000000     0.803510000000     0.495110000000    -0.377696   
O80      O      0.375770000000     0.158260000000     0.467210000000    -0.380968   
O81      O      0.578690000000     0.162420000000     0.465790000000    -0.383781   
O82      O      0.586460000000     0.809260000000     0.491240000000    -0.379002   
O83      O      0.486690000000     0.890170000000     0.663540000000    -0.378322   
O84      O      0.485210000000     0.095100000000     0.652190000000    -0.376005   
O85      O      0.490020000000     0.811340000000     0.591370000000    -0.378466   
O86      O      0.482070000000     0.166020000000     0.573120000000    -0.387558   
O87      O      0.305220000000     0.878200000000     0.491230000000    -0.380837   
O88      O      0.661610000000     0.885510000000     0.489320000000    -0.378816   
O89      O      0.656240000000     0.089480000000     0.469140000000    -0.376291   
O90      O      0.301740000000     0.081550000000     0.466740000000    -0.381026   
O91      O      0.379280000000     0.996000000000     0.658740000000    -0.381011   
O92      O      0.583830000000     0.998540000000     0.656930000000    -0.377629   
O93      O      0.543530000000     0.051300000000     0.541180000000    -0.505821   
O94      O      0.418510000000     0.921920000000     0.548320000000    -0.505671   
O95      O      0.545760000000     0.925250000000     0.547130000000    -0.651386   
O96      O      0.415830000000     0.049040000000     0.541720000000    -0.651272   
O97      O      0.304970000000     0.377700000000     0.968540000000    -0.378281   
O98      O      0.659840000000     0.381900000000     0.994430000000    -0.376733   
O99      O      0.481010000000     0.307910000000     0.876900000000    -0.381339   
O100     O      0.486640000000     0.300210000000     0.079200000000    -0.381498   
O101     O      0.487480000000     0.374070000000     0.155650000000    -0.382294   
O102     O      0.474040000000     0.386470000000     0.804770000000    -0.379775   
O103     O      0.585170000000     0.306380000000     0.985820000000    -0.384036   
O104     O      0.381770000000     0.303270000000     0.972490000000    -0.380445   
O105     O      0.543940000000     0.418120000000     0.045500000000    -0.507369   
O106     O      0.419860000000     0.420430000000     0.917910000000    -0.506529   
O107     O      0.546670000000     0.420800000000     0.919160000000    -0.651396   
O108     O      0.416720000000     0.414810000000     0.044290000000    -0.650861   
O109     O      0.656940000000     0.586150000000     0.988900000000    -0.380435   
O110     O      0.302620000000     0.581610000000     0.981220000000    -0.383887   
O111     O      0.585690000000     0.483470000000     0.808690000000    -0.387596   
O112     O      0.579650000000     0.482450000000     0.162390000000    -0.379564   
O113     O      0.375930000000     0.469760000000     0.158050000000    -0.382487   
O114     O      0.382130000000     0.490870000000     0.805730000000    -0.379556   
O115     O      0.478450000000     0.663530000000     0.888730000000    -0.381857   
O116     O      0.470710000000     0.655900000000     0.091890000000    -0.377703   
O117     O      0.480560000000     0.591130000000     0.810920000000    -0.380845   
O118     O      0.470870000000     0.577640000000     0.164660000000    -0.378406   
O119     O      0.660910000000     0.480120000000     0.883890000000    -0.380084   
O120     O      0.304950000000     0.486900000000     0.878790000000    -0.376485   
O121     O      0.300550000000     0.471380000000     0.082310000000    -0.38039    
O122     O      0.656810000000     0.486600000000     0.088450000000    -0.372961   
O123     O      0.581010000000     0.661490000000     0.994250000000    -0.380932   
O124     O      0.376670000000     0.658260000000     0.982530000000    -0.380733   
O125     O      0.414860000000     0.542890000000     0.048210000000    -0.503635   
O126     O      0.545520000000     0.549450000000     0.923390000000    -0.505259   
O127     O      0.418330000000     0.546240000000     0.922730000000    -0.654728   
O128     O      0.542430000000     0.544050000000     0.049800000000    -0.651957   
Zr1      Zr     0.980530000000     0.981310000000     0.107200000000     1.41713    
Zr2      Zr     0.980380000000     0.854920000000     0.981360000000     1.42378    
Zr3      Zr     0.983240000000     0.107620000000     0.981100000000     1.41614    
Zr4      Zr     0.855700000000     0.982680000000     0.980890000000     1.41722    
Zr5      Zr     0.108380000000     0.979740000000     0.982040000000     1.42085    
Zr6      Zr     0.982650000000     0.981090000000     0.855630000000     1.4209     
Zr7      Zr     0.979360000000     0.481140000000     0.356690000000     1.42444    
Zr8      Zr     0.983420000000     0.608090000000     0.481900000000     1.41705    
Zr9      Zr     0.977970000000     0.355610000000     0.483510000000     1.42092    
Zr10     Zr     0.854770000000     0.484780000000     0.484650000000     1.42466    
Zr11     Zr     0.106980000000     0.478780000000     0.481180000000     1.42246    
Zr12     Zr     0.982610000000     0.482910000000     0.609260000000     1.41886    
Zr13     Zr     0.480000000000     0.977160000000     0.354710000000     1.42087    
Zr14     Zr     0.354460000000     0.980780000000     0.481570000000     1.41437    
Zr15     Zr     0.607490000000     0.986420000000     0.480560000000     1.42264    
Zr16     Zr     0.483280000000     0.857550000000     0.487650000000     1.42096    
Zr17     Zr     0.478270000000     0.108690000000     0.475080000000     1.43266    
Zr18     Zr     0.481230000000     0.990050000000     0.607190000000     1.41962    
Zr19     Zr     0.482710000000     0.356040000000     0.979890000000     1.42676    
Zr20     Zr     0.607620000000     0.483490000000     0.985390000000     1.41994    
Zr21     Zr     0.354340000000     0.479960000000     0.981770000000     1.42349    
Zr22     Zr     0.483250000000     0.486760000000     0.858510000000     1.4239     
Zr23     Zr     0.478560000000     0.477990000000     0.109200000000     1.42555    
Zr24     Zr     0.479410000000     0.608500000000     0.988390000000     1.42209    


