data_structure

_audit_creation_method RASPA-1.0
_audit_creation_date 2023-5-19
_audit_author_name 'Poobodin Mano'

_cell_length_a    33.7161
_cell_length_b    33.703
_cell_length_c    33.7046
_cell_angle_alpha 90
_cell_angle_beta  90
_cell_angle_gamma 90
_cell_volume      38299.7

_symmetry_cell_setting          triclinic
_symmetry_space_group_name_Hall 'P 1'
_symmetry_space_group_name_H-M  'P 1'
_symmetry_Int_Tables_number     1

_symmetry_equiv_pos_as_xyz 'x,y,z'

loop_
_atom_site_label
_atom_site_type_symbol
_atom_site_fract_x
_atom_site_fract_y
_atom_site_fract_z
_atom_site_charge
C1       C      0.977090000000     0.078850000000     0.077780000000     0.398552   
C2       C      0.975910000000     0.876070000000     0.077620000000     0.398999   
C3       C      0.877400000000     0.982900000000     0.078350000000     0.40129    
C4       C      0.079990000000     0.976850000000     0.077420000000     0.396327   
C5       C      0.972380000000     0.876580000000     0.874860000000     0.402703   
C6       C      0.983190000000     0.079000000000     0.875310000000     0.401906   
C7       C      0.876080000000     0.876980000000     0.979780000000     0.400062   
C8       C      0.078700000000     0.875480000000     0.975560000000     0.396534   
C9       C      0.080030000000     0.078500000000     0.976330000000     0.394857   
C10      C      0.877330000000     0.079790000000     0.977870000000     0.395766   
C11      C      0.876260000000     0.977660000000     0.875570000000     0.395775   
C12      C      0.078840000000     0.980640000000     0.874400000000     0.401156   
C13      C      0.978880000000     0.376240000000     0.375810000000     0.402897   
C14      C      0.981720000000     0.578630000000     0.374830000000     0.396871   
C15      C      0.876690000000     0.475490000000     0.376020000000     0.401997   
C16      C      0.079660000000     0.475090000000     0.375080000000     0.396185   
C17      C      0.980690000000     0.579100000000     0.577810000000     0.393662   
C18      C      0.977520000000     0.376150000000     0.578080000000     0.396018   
C19      C      0.879700000000     0.581420000000     0.480790000000     0.400214   
C20      C      0.082140000000     0.576960000000     0.478960000000     0.400821   
C21      C      0.077600000000     0.374010000000     0.480790000000     0.40102    
C22      C      0.875000000000     0.378750000000     0.475470000000     0.395189   
C23      C      0.878270000000     0.483000000000     0.578580000000     0.403927   
C24      C      0.080400000000     0.474200000000     0.577870000000     0.397541   
C25      C      0.580960000000     0.978540000000     0.376360000000     0.39617    
C26      C      0.378420000000     0.972450000000     0.373840000000     0.400502   
C27      C      0.486160000000     0.876590000000     0.375170000000     0.401661   
C28      C      0.476960000000     0.078950000000     0.374890000000     0.397415   
C29      C      0.376060000000     0.973480000000     0.576840000000     0.395745   
C30      C      0.578160000000     0.984450000000     0.579220000000     0.401547   
C31      C      0.380220000000     0.873120000000     0.476060000000     0.396763   
C32      C      0.374120000000     0.075990000000     0.472670000000     0.396897   
C33      C      0.576830000000     0.082000000000     0.480920000000     0.401698   
C34      C      0.582870000000     0.879280000000     0.476510000000     0.396621   
C35      C      0.483350000000     0.876530000000     0.578100000000     0.400937   
C36      C      0.470930000000     0.078850000000     0.577780000000     0.397489   
C37      C      0.376920000000     0.376220000000     0.973450000000     0.400021   
C38      C      0.376700000000     0.579080000000     0.980350000000     0.398661   
C39      C      0.377020000000     0.478510000000     0.078170000000     0.399601   
C40      C      0.377040000000     0.482090000000     0.875220000000     0.402919   
C41      C      0.579160000000     0.579720000000     0.976980000000     0.397506   
C42      C      0.579810000000     0.376990000000     0.972320000000     0.40219    
C43      C      0.478800000000     0.578690000000     0.078320000000     0.39501    
C44      C      0.476860000000     0.579380000000     0.875400000000     0.397166   
C45      C      0.478800000000     0.376690000000     0.874830000000     0.395174   
C46      C      0.473710000000     0.376010000000     0.077530000000     0.403442   
C47      C      0.579620000000     0.479010000000     0.078290000000     0.397259   
C48      C      0.579680000000     0.477080000000     0.875690000000     0.396715   
C49      C      0.461920000000     0.325570000000     0.174150000000    -0.141384   
C50      C      0.482030000000     0.097360000000     0.306720000000     0.0714362  
C51      C      0.472570000000     0.146980000000     0.355620000000     0.0714001  
C52      C      0.482790000000     0.126100000000     0.276920000000    -0.0926004  
C53      C      0.461330000000     0.189610000000     0.217540000000    -0.0376422  
C54      C      0.461250000000     0.218740000000     0.188060000000    -0.032016   
C55      C      0.478170000000     0.197260000000     0.254990000000    -0.00547549 
C56      C      0.472690000000     0.176440000000     0.326480000000    -0.09251    
C57      C      0.477540000000     0.256350000000     0.195470000000    -0.0159339  
C58      C      0.486270000000     0.279570000000     0.125540000000    -0.106678   
C59      C      0.494400000000     0.264120000000     0.232760000000    -0.0322348  
C60      C      0.483960000000     0.309360000000     0.096950000000     0.077205   
C61      C      0.457560000000     0.354550000000     0.144470000000     0.183892   
C62      C      0.494950000000     0.234840000000     0.262110000000    -0.0378035  
C63      C      0.477960000000     0.166260000000     0.286500000000     0.0482369  
C64      C      0.475910000000     0.287740000000     0.164740000000     0.0701602  
C65      C      0.495990000000     0.826430000000     0.278090000000    -0.141234   
C66      C      0.475180000000     0.597200000000     0.146610000000     0.0691732  
C67      C      0.481750000000     0.646890000000     0.097320000000     0.0689661  
C68      C      0.474730000000     0.626030000000     0.176360000000    -0.0931068  
C69      C      0.497200000000     0.690160000000     0.234790000000    -0.0377382  
C70      C      0.498060000000     0.719440000000     0.264130000000    -0.0322999  
C71      C      0.478820000000     0.697400000000     0.197990000000    -0.00575549 
C72      C      0.481900000000     0.676440000000     0.126370000000    -0.0928229  
C73      C      0.481010000000     0.756810000000     0.257230000000    -0.0159194  
C74      C      0.474410000000     0.779870000000     0.327450000000    -0.1067     
C75      C      0.462640000000     0.764200000000     0.220580000000    -0.0325501  
C76      C      0.477050000000     0.809690000000     0.355980000000     0.0758399  
C77      C      0.500750000000     0.855500000000     0.307670000000     0.181174   
C78      C      0.461320000000     0.734760000000     0.191390000000    -0.0380033  
C79      C      0.478340000000     0.666280000000     0.166540000000     0.0475213  
C80      C      0.483180000000     0.788270000000     0.287920000000     0.0692126  
C81      C      0.494260000000     0.827540000000     0.675520000000    -0.139519   
C82      C      0.472540000000     0.598290000000     0.807240000000     0.0713071  
C83      C      0.479740000000     0.647670000000     0.856840000000     0.071083   
C84      C      0.472170000000     0.627310000000     0.777660000000    -0.0932919  
C85      C      0.448830000000     0.699240000000     0.726540000000    -0.0380932  
C86      C      0.449930000000     0.728770000000     0.697410000000    -0.0319284  
C87      C      0.477390000000     0.698400000000     0.756850000000    -0.00581886 
C88      C      0.480100000000     0.677350000000     0.827950000000    -0.0933943  
C89      C      0.479940000000     0.757810000000     0.697680000000    -0.0153896  
C90      C      0.472070000000     0.780360000000     0.627050000000    -0.105291   
C91      C      0.508740000000     0.756530000000     0.727920000000    -0.0318968  
C92      C      0.474260000000     0.809870000000     0.598130000000     0.0772145  
C93      C      0.498580000000     0.856220000000     0.645560000000     0.181815   
C94      C      0.507280000000     0.727370000000     0.757300000000    -0.0383419  
C95      C      0.476300000000     0.667300000000     0.787880000000     0.0486245  
C96      C      0.481540000000     0.789080000000     0.666460000000     0.0688823  
C97      C      0.460900000000     0.127850000000     0.675400000000    -0.139853   
C98      C      0.481940000000     0.357920000000     0.806530000000     0.0700759  
C99      C      0.475740000000     0.308430000000     0.856140000000     0.0692012  
C100     C      0.481840000000     0.328930000000     0.776880000000    -0.0934154  
C101     C      0.504290000000     0.257530000000     0.724830000000    -0.0382482  
C102     C      0.503040000000     0.227910000000     0.695780000000    -0.0322008  
C103     C      0.476660000000     0.257730000000     0.756020000000    -0.00596478 
C104     C      0.474960000000     0.278790000000     0.827220000000    -0.0937444  
C105     C      0.473850000000     0.198070000000     0.697040000000    -0.0156088  
C106     C      0.479890000000     0.175620000000     0.626200000000    -0.106049   
C107     C      0.445980000000     0.198680000000     0.728150000000    -0.0321311  
C108     C      0.477680000000     0.146000000000     0.597390000000     0.075043   
C109     C      0.456520000000     0.098980000000     0.645600000000     0.179051   
C110     C      0.447550000000     0.227980000000     0.757400000000    -0.0384199  
C111     C      0.478010000000     0.288880000000     0.787080000000     0.0480612  
C112     C      0.472130000000     0.166670000000     0.665910000000     0.0681009  
C113     C      0.625570000000     0.179910000000     0.491030000000    -0.140542   
C114     C      0.855140000000     0.311030000000     0.469700000000     0.0703802  
C115     C      0.806450000000     0.360930000000     0.478510000000     0.0681045  
C116     C      0.825840000000     0.281780000000     0.468960000000    -0.092538   
C117     C      0.761770000000     0.223700000000     0.491530000000    -0.037595   
C118     C      0.732460000000     0.194430000000     0.492060000000    -0.032305   
C119     C      0.754390000000     0.261000000000     0.474250000000    -0.00561233 
C120     C      0.776410000000     0.332340000000     0.478390000000    -0.0925531  
C121     C      0.694850000000     0.201840000000     0.475780000000    -0.0156841  
C122     C      0.672230000000     0.131740000000     0.467160000000    -0.106334   
C123     C      0.687190000000     0.239090000000     0.458760000000    -0.0325103  
C124     C      0.642890000000     0.102750000000     0.469780000000     0.0767728  
C125     C      0.597000000000     0.149810000000     0.495700000000     0.18255    
C126     C      0.716700000000     0.268270000000     0.457760000000    -0.0377282  
C127     C      0.785860000000     0.292100000000     0.473690000000     0.0475003  
C128     C      0.663590000000     0.170900000000     0.477280000000     0.0694674  
C129     C      0.831250000000     0.679200000000     0.492400000000    -0.140936   
C130     C      0.602690000000     0.811580000000     0.471100000000     0.0714003  
C131     C      0.651370000000     0.861390000000     0.480490000000     0.0701569  
C132     C      0.631890000000     0.782280000000     0.470670000000    -0.0927044  
C133     C      0.740840000000     0.768340000000     0.459960000000    -0.0378904  
C134     C      0.770080000000     0.738910000000     0.460710000000    -0.0324056  
C135     C      0.703140000000     0.761270000000     0.476470000000    -0.00561123 
C136     C      0.681350000000     0.832710000000     0.480690000000    -0.0926187  
C137     C      0.762130000000     0.701620000000     0.477530000000    -0.0160074  
C138     C      0.784230000000     0.631370000000     0.468500000000    -0.106708   
C139     C      0.724530000000     0.694440000000     0.493910000000    -0.032347   
C140     C      0.813490000000     0.602260000000     0.470670000000     0.0739832  
C141     C      0.859710000000     0.648960000000     0.496640000000     0.181496   
C142     C      0.695480000000     0.723960000000     0.493610000000    -0.0379553  
C143     C      0.671830000000     0.792500000000     0.475830000000     0.0478603  
C144     C      0.793140000000     0.670450000000     0.478770000000     0.0688786  
C145     C      0.126020000000     0.275950000000     0.490120000000    -0.141494   
C146     C      0.354390000000     0.143670000000     0.466620000000     0.0714768  
C147     C      0.305540000000     0.093860000000     0.475090000000     0.0703191  
C148     C      0.325220000000     0.173000000000     0.465960000000    -0.0927419  
C149     C      0.216170000000     0.187310000000     0.455280000000    -0.0379012  
C150     C      0.186920000000     0.216730000000     0.456670000000    -0.032402   
C151     C      0.253970000000     0.194120000000     0.471710000000    -0.00552858 
C152     C      0.275590000000     0.122580000000     0.475100000000    -0.0924027  
C153     C      0.194960000000     0.253740000000     0.474050000000    -0.0160165  
C154     C      0.172760000000     0.324080000000     0.466300000000    -0.106797   
C155     C      0.232660000000     0.260680000000     0.490280000000    -0.0321338  
C156     C      0.143620000000     0.353210000000     0.469400000000     0.0755506  
C157     C      0.097690000000     0.306170000000     0.495310000000     0.181679   
C158     C      0.261710000000     0.231180000000     0.489360000000    -0.03773    
C159     C      0.285210000000     0.162820000000     0.470720000000     0.0479517  
C160     C      0.163950000000     0.284870000000     0.476090000000     0.069147   
C161     C      0.134380000000     0.672880000000     0.488570000000    -0.14034    
C162     C      0.363000000000     0.804530000000     0.471070000000     0.070124   
C163     C      0.312510000000     0.852780000000     0.478900000000     0.0712681  
C164     C      0.334640000000     0.774330000000     0.469590000000    -0.0927742  
C165     C      0.270660000000     0.714360000000     0.489270000000    -0.0376211  
C166     C      0.241300000000     0.685080000000     0.489300000000    -0.0323526  
C167     C      0.263460000000     0.751720000000     0.472030000000    -0.00569946 
C168     C      0.283460000000     0.823300000000     0.478050000000    -0.0927685  
C169     C      0.203930000000     0.692630000000     0.472520000000    -0.0156864  
C170     C      0.179400000000     0.622950000000     0.465110000000    -0.106439   
C171     C      0.196760000000     0.729670000000     0.454910000000    -0.0323272  
C172     C      0.149060000000     0.594990000000     0.467990000000     0.077612   
C173     C      0.104860000000     0.643840000000     0.493580000000     0.182301   
C174     C      0.226250000000     0.758780000000     0.454400000000    -0.037719   
C175     C      0.294230000000     0.783450000000     0.473120000000     0.0479618  
C176     C      0.172000000000     0.662480000000     0.474720000000     0.0698618  
C177     C      0.779550000000     0.465990000000     0.325920000000    -0.140953   
C178     C      0.647730000000     0.484460000000     0.096850000000     0.0713906  
C179     C      0.598670000000     0.476330000000     0.146510000000     0.0709032  
C180     C      0.677470000000     0.485570000000     0.125670000000    -0.0924076  
C181     C      0.692280000000     0.499020000000     0.234390000000    -0.0377944  
C182     C      0.721540000000     0.498370000000     0.263780000000    -0.0322916  
C183     C      0.699260000000     0.481770000000     0.196980000000    -0.00545437 
C184     C      0.627730000000     0.476850000000     0.176060000000    -0.0923384  
C185     C      0.758610000000     0.480900000000     0.256330000000    -0.0158692  
C186     C      0.828710000000     0.488370000000     0.279550000000    -0.106565   
C187     C      0.765870000000     0.464130000000     0.218890000000    -0.0321381  
C188     C      0.857260000000     0.485700000000     0.309350000000     0.0760699  
C189     C      0.809140000000     0.461250000000     0.354960000000     0.182701   
C190     C      0.736490000000     0.464350000000     0.189650000000    -0.0377492  
C191     C      0.667780000000     0.481530000000     0.165900000000     0.0479939  
C192     C      0.789270000000     0.479120000000     0.287840000000     0.0694811  
C193     C      0.326460000000     0.486830000000     0.175180000000    -0.14077    
C194     C      0.097890000000     0.469290000000     0.306900000000     0.0707957  
C195     C      0.147770000000     0.477030000000     0.355790000000     0.0704904  
C196     C      0.126590000000     0.467600000000     0.277090000000    -0.0924874  
C197     C      0.190590000000     0.487480000000     0.217720000000    -0.0375588  
C198     C      0.219830000000     0.487380000000     0.188360000000    -0.0321413  
C199     C      0.197860000000     0.470350000000     0.255120000000    -0.00553058 
C200     C      0.177210000000     0.476000000000     0.326650000000    -0.0927628  
C201     C      0.257210000000     0.470620000000     0.195840000000    -0.015859   
C202     C      0.280990000000     0.462660000000     0.126020000000    -0.106603   
C203     C      0.264590000000     0.453350000000     0.233010000000    -0.032372   
C204     C      0.310790000000     0.465980000000     0.097560000000     0.07664    
C205     C      0.355400000000     0.492320000000     0.145640000000     0.179343   
C206     C      0.235170000000     0.452950000000     0.262230000000    -0.0378578  
C207     C      0.166880000000     0.471160000000     0.286660000000     0.0479921  
C208     C      0.288850000000     0.472560000000     0.165390000000     0.0692777  
C209     C      0.280390000000     0.491820000000     0.824440000000    -0.141363   
C210     C      0.148460000000     0.467970000000     0.596310000000     0.0714179  
C211     C      0.099590000000     0.477190000000     0.645970000000     0.0709368  
C212     C      0.178250000000     0.467020000000     0.625060000000    -0.0927738  
C213     C      0.237410000000     0.489380000000     0.688430000000    -0.0377634  
C214     C      0.266750000000     0.490340000000     0.717660000000    -0.0321502  
C215     C      0.200190000000     0.472130000000     0.696210000000    -0.00562776 
C216     C      0.128690000000     0.476900000000     0.675440000000    -0.0928674  
C217     C      0.259430000000     0.474530000000     0.755490000000    -0.0159953  
C218     C      0.329320000000     0.467040000000     0.779020000000    -0.106961   
C219     C      0.222410000000     0.457200000000     0.763390000000    -0.0323509  
C220     C      0.357810000000     0.470310000000     0.808780000000     0.0768131  
C221     C      0.309990000000     0.497130000000     0.853340000000     0.183592   
C222     C      0.193200000000     0.455760000000     0.734000000000    -0.0377531  
C223     C      0.168670000000     0.471810000000     0.665230000000     0.0481626  
C224     C      0.290020000000     0.477130000000     0.786920000000     0.0700269  
C225     C      0.785970000000     0.505080000000     0.632800000000    -0.140063   
C226     C      0.599260000000     0.466470000000     0.808560000000     0.0707168  
C227     C      0.647110000000     0.485670000000     0.856290000000     0.0684985  
C228     C      0.628340000000     0.465290000000     0.779090000000    -0.0923865  
C229     C      0.689310000000     0.483730000000     0.716660000000    -0.0376876  
C230     C      0.718580000000     0.484180000000     0.687340000000    -0.0318802  
C231     C      0.698990000000     0.475840000000     0.756530000000    -0.00519842 
C232     C      0.676650000000     0.486090000000     0.827280000000    -0.0926147  
C233     C      0.758720000000     0.478040000000     0.697050000000    -0.0147976  
C234     C      0.825450000000     0.458460000000     0.669480000000    -0.105347   
C235     C      0.768430000000     0.470330000000     0.736940000000    -0.0319681  
C236     C      0.854910000000     0.461600000000     0.640680000000     0.0776562  
C237     C      0.815950000000     0.507710000000     0.603930000000     0.184212   
C238     C      0.739000000000     0.468620000000     0.766060000000    -0.0376758  
C239     C      0.667680000000     0.475610000000     0.787980000000     0.0472456  
C240     C      0.790270000000     0.480230000000     0.665910000000     0.0687118  
C241     C      0.825460000000     0.780340000000     0.990380000000    -0.142095   
C242     C      0.597350000000     0.647950000000     0.971910000000     0.0707849  
C243     C      0.647200000000     0.599090000000     0.980220000000     0.0708513  
C244     C      0.626000000000     0.677810000000     0.970770000000    -0.0930307  
C245     C      0.689700000000     0.737210000000     0.991480000000    -0.0389795  
C246     C      0.718810000000     0.766690000000     0.991430000000    -0.0335964  
C247     C      0.697150000000     0.699860000000     0.974330000000    -0.00543591 
C248     C      0.676590000000     0.628290000000     0.979730000000    -0.0927837  
C249     C      0.756220000000     0.759370000000     0.974680000000    -0.0158053  
C250     C      0.779630000000     0.829290000000     0.966410000000    -0.106774   
C251     C      0.763790000000     0.722220000000     0.957430000000    -0.0325036  
C252     C      0.809470000000     0.857780000000     0.969030000000     0.0774569  
C253     C      0.854480000000     0.809910000000     0.995100000000     0.181843   
C254     C      0.734510000000     0.692880000000     0.957010000000    -0.0378841  
C255     C      0.666240000000     0.668280000000     0.974840000000     0.0477957  
C256     C      0.787690000000     0.789980000000     0.976440000000     0.0701444  
C257     C      0.676930000000     0.327090000000     0.962000000000    -0.140978   
C258     C      0.809180000000     0.098470000000     0.982060000000     0.0693613  
C259     C      0.858500000000     0.148100000000     0.975550000000     0.0703735  
C260     C      0.779480000000     0.127320000000     0.982850000000    -0.0931047  
C261     C      0.764460000000     0.236070000000     0.996430000000    -0.0390706  
C262     C      0.735130000000     0.265390000000     0.995420000000    -0.033732   
C263     C      0.757810000000     0.198650000000     0.979070000000    -0.00532013 
C264     C      0.829470000000     0.177700000000     0.975660000000    -0.0923357  
C265     C      0.698290000000     0.257800000000     0.977530000000    -0.0155192  
C266     C      0.628150000000     0.280710000000     0.985190000000    -0.106592   
C267     C      0.691360000000     0.220390000000     0.960600000000    -0.0323975  
C268     C      0.599460000000     0.310380000000     0.982550000000     0.0763669  
C269     C      0.647170000000     0.355950000000     0.957230000000     0.183141   
C270     C      0.720830000000     0.191260000000     0.961110000000    -0.0378819  
C271     C      0.789300000000     0.167570000000     0.979350000000     0.0474313  
C272     C      0.667480000000     0.289120000000     0.975590000000     0.0693964  
C273     C      0.326310000000     0.676130000000     0.989330000000    -0.139938   
C274     C      0.096950000000     0.807160000000     0.971420000000     0.0702732  
C275     C      0.146810000000     0.856270000000     0.977990000000     0.0706071  
C276     C      0.125680000000     0.777330000000     0.970590000000    -0.0929201  
C277     C      0.234000000000     0.762180000000     0.955650000000    -0.0379508  
C278     C      0.263460000000     0.733030000000     0.956560000000    -0.0326171  
C279     C      0.196980000000     0.755590000000     0.973810000000    -0.00542968 
C280     C      0.176250000000     0.827150000000     0.977690000000    -0.0928422  
C281     C      0.256430000000     0.696450000000     0.975210000000    -0.0154973  
C282     C      0.279650000000     0.626240000000     0.969290000000    -0.107033   
C283     C      0.219340000000     0.689540000000     0.992870000000    -0.033694   
C284     C      0.309570000000     0.597880000000     0.972040000000     0.0761063  
C285     C      0.355520000000     0.646740000000     0.994220000000     0.180398   
C286     C      0.190030000000     0.718830000000     0.992370000000    -0.03901    
C287     C      0.165950000000     0.787050000000     0.973890000000     0.0476796  
C288     C      0.288030000000     0.665950000000     0.977220000000     0.069082   
C289     C      0.326810000000     0.279290000000     0.962400000000    -0.140307   
C290     C      0.098590000000     0.146660000000     0.980910000000     0.0682741  
C291     C      0.148210000000     0.097520000000     0.973050000000     0.0702154  
C292     C      0.127370000000     0.176400000000     0.981850000000    -0.0929168  
C293     C      0.236050000000     0.191170000000     0.995440000000    -0.0390206  
C294     C      0.265330000000     0.220550000000     0.995100000000    -0.0337506  
C295     C      0.198630000000     0.198210000000     0.978260000000    -0.00538076 
C296     C      0.177740000000     0.126610000000     0.973330000000    -0.0924163  
C297     C      0.257690000000     0.257800000000     0.978120000000    -0.0153939  
C298     C      0.280880000000     0.327720000000     0.987180000000    -0.106451   
C299     C      0.220260000000     0.265150000000     0.961420000000    -0.0326577  
C300     C      0.310560000000     0.356410000000     0.984690000000     0.0772129  
C301     C      0.355630000000     0.309090000000     0.957770000000     0.181906   
C302     C      0.191170000000     0.235630000000     0.961240000000    -0.0378069  
C303     C      0.167590000000     0.166700000000     0.977890000000     0.0471785  
C304     C      0.289060000000     0.288570000000     0.976640000000     0.0692996  
C305     C      0.627520000000     0.993790000000     0.676800000000    -0.142929   
C306     C      0.857340000000     0.974690000000     0.807380000000     0.068767   
C307     C      0.807930000000     0.979850000000     0.857080000000     0.0700489  
C308     C      0.828340000000     0.974230000000     0.777820000000    -0.0934455  
C309     C      0.719790000000     0.959540000000     0.763270000000    -0.0382033  
C310     C      0.690240000000     0.960760000000     0.734200000000    -0.0326818  
C311     C      0.756840000000     0.977680000000     0.756750000000    -0.00557531 
C312     C      0.778200000000     0.980010000000     0.828240000000    -0.0929639  
C313     C      0.697260000000     0.979670000000     0.697760000000    -0.01609    
C314     C      0.674520000000     0.972970000000     0.627550000000    -0.107127   
C315     C      0.734290000000     0.997460000000     0.690970000000    -0.0335892  
C316     C      0.644870000000     0.975500000000     0.598900000000     0.0758705  
C317     C      0.598560000000     0.998470000000     0.647100000000     0.18019    
C318     C      0.763650000000     0.996700000000     0.720190000000    -0.0392714  
C319     C      0.788130000000     0.977150000000     0.787970000000     0.0473027  
C320     C      0.665850000000     0.981490000000     0.667060000000     0.0694691  
C321     C      0.128770000000     0.989610000000     0.777090000000    -0.140414   
C322     C      0.357370000000     0.968770000000     0.644980000000     0.0690525  
C323     C      0.307750000000     0.975310000000     0.595650000000     0.0699105  
C324     C      0.328540000000     0.968020000000     0.674690000000    -0.0927797  
C325     C      0.264650000000     0.990030000000     0.733340000000    -0.0389624  
C326     C      0.235520000000     0.990730000000     0.762820000000    -0.0338271  
C327     C      0.257230000000     0.971960000000     0.696410000000    -0.00539839 
C328     C      0.278170000000     0.975180000000     0.624700000000    -0.0924609  
C329     C      0.198070000000     0.973870000000     0.755940000000    -0.0153116  
C330     C      0.175060000000     0.966920000000     0.826170000000    -0.106319   
C331     C      0.190470000000     0.955840000000     0.719150000000    -0.0326781  
C332     C      0.145390000000     0.969950000000     0.854830000000     0.0762049  
C333     C      0.099910000000     0.994770000000     0.806790000000     0.182295   
C334     C      0.219790000000     0.954650000000     0.689820000000    -0.0377084  
C335     C      0.288300000000     0.971550000000     0.664890000000     0.0472114  
C336     C      0.166710000000     0.976100000000     0.786710000000     0.0691098  
C337     C      0.328810000000     0.962270000000     0.276450000000    -0.139979   
C338     C      0.099020000000     0.981070000000     0.145530000000     0.0710662  
C339     C      0.148250000000     0.973130000000     0.096010000000     0.0710221  
C340     C      0.128050000000     0.981630000000     0.175070000000    -0.0922092  
C341     C      0.192390000000     0.959760000000     0.233450000000    -0.0378044  
C342     C      0.221760000000     0.959500000000     0.262690000000    -0.0323145  
C343     C      0.199490000000     0.977400000000     0.196260000000    -0.00509924 
C344     C      0.177990000000     0.973110000000     0.124860000000    -0.0923929  
C345     C      0.259090000000     0.976450000000     0.255340000000    -0.0153209  
C346     C      0.282110000000     0.984360000000     0.325430000000    -0.10623    
C347     C      0.266360000000     0.994010000000     0.218270000000    -0.0335296  
C348     C      0.311830000000     0.982070000000     0.354060000000     0.0773604  
C349     C      0.357820000000     0.957920000000     0.306150000000     0.181645   
C350     C      0.236830000000     0.994710000000     0.189150000000    -0.0390089  
C351     C      0.168170000000     0.977470000000     0.165030000000     0.0477328  
C352     C      0.290580000000     0.975020000000     0.286040000000     0.0692307  
C353     C      0.780700000000     0.992590000000     0.129190000000    -0.142873   
C354     C      0.649330000000     0.974750000000     0.358300000000     0.0702377  
C355     C      0.600300000000     0.980260000000     0.308250000000     0.0685381  
C356     C      0.679220000000     0.973770000000     0.329630000000    -0.0928168  
C357     C      0.694640000000     0.958150000000     0.221270000000    -0.0379808  
C358     C      0.723820000000     0.959100000000     0.191830000000    -0.0326     
C359     C      0.701130000000     0.976390000000     0.258300000000    -0.0054079  
C360     C      0.629480000000     0.979850000000     0.278850000000    -0.0930826  
C361     C      0.760340000000     0.977800000000     0.198910000000    -0.0160363  
C362     C      0.830440000000     0.971440000000     0.175510000000    -0.107791   
C363     C      0.767200000000     0.995460000000     0.236000000000    -0.0334686  
C364     C      0.858750000000     0.974150000000     0.145510000000     0.0756918  
C365     C      0.810070000000     0.997490000000     0.099960000000     0.182897   
C366     C      0.737860000000     0.994990000000     0.265270000000    -0.039107   
C367     C      0.669580000000     0.976530000000     0.289280000000     0.0473753  
C368     C      0.790820000000     0.979890000000     0.167290000000     0.0701038  
C369     C      0.995020000000     0.175680000000     0.824960000000    -0.142842   
C370     C      0.972910000000     0.307970000000     0.596600000000     0.06833    
C371     C      0.981660000000     0.357050000000     0.646170000000     0.069957   
C372     C      0.972550000000     0.278190000000     0.625380000000    -0.093166   
C373     C      0.995020000000     0.219230000000     0.688950000000    -0.03917    
C374     C      0.995620000000     0.189800000000     0.718120000000    -0.0335896  
C375     C      0.977610000000     0.256420000000     0.696570000000    -0.00546717 
C376     C      0.981910000000     0.327960000000     0.675660000000    -0.0928111  
C377     C      0.979270000000     0.197010000000     0.755740000000    -0.0160206  
C378     C      0.971110000000     0.126990000000     0.778810000000    -0.107201   
C379     C      0.961890000000     0.234050000000     0.763520000000    -0.0325325  
C380     C      0.973420000000     0.098400000000     0.808580000000     0.0741675  
C381     C      0.999420000000     0.145980000000     0.853920000000     0.181872   
C382     C      0.960820000000     0.263340000000     0.734190000000    -0.038054   
C383     C      0.977250000000     0.287890000000     0.665530000000     0.0472049  
C384     C      0.981180000000     0.166240000000     0.787080000000     0.0696924  
C385     C      0.961420000000     0.827350000000     0.777550000000    -0.140488   
C386     C      0.984140000000     0.598100000000     0.645990000000     0.0699033  
C387     C      0.978540000000     0.647480000000     0.596200000000     0.0670744  
C388     C      0.984340000000     0.627160000000     0.675530000000    -0.0937238  
C389     C      0.007720000000     0.699140000000     0.726760000000    -0.0369387  
C390     C      0.006330000000     0.728670000000     0.755890000000    -0.0305932  
C391     C      0.979480000000     0.698320000000     0.696160000000    -0.00746123 
C392     C      0.977960000000     0.677220000000     0.625030000000    -0.0946166  
C393     C      0.976300000000     0.757700000000     0.755350000000    -0.0168773  
C394     C      0.983850000000     0.780320000000     0.826040000000    -0.105814   
C395     C      0.947820000000     0.756420000000     0.724800000000    -0.0317376  
C396     C      0.981540000000     0.809850000000     0.854940000000     0.0768503  
C397     C      0.956930000000     0.856010000000     0.807510000000     0.183712   
C398     C      0.949610000000     0.727290000000     0.695390000000    -0.0381905  
C399     C      0.980840000000     0.667180000000     0.665180000000     0.0481968  
C400     C      0.974380000000     0.788960000000     0.786610000000     0.0693356  
C401     C      0.967060000000     0.825260000000     0.174440000000    -0.140776   
C402     C      0.986930000000     0.596800000000     0.306560000000     0.0708662  
C403     C      0.980060000000     0.646790000000     0.355490000000     0.0708542  
C404     C      0.988150000000     0.625460000000     0.276670000000    -0.0927966  
C405     C      0.967130000000     0.689310000000     0.217470000000    -0.0376707  
C406     C      0.966620000000     0.718500000000     0.188030000000    -0.0321158  
C407     C      0.984860000000     0.696730000000     0.254560000000    -0.00687066 
C408     C      0.980630000000     0.676190000000     0.326270000000    -0.09252    
C409     C      0.983360000000     0.755970000000     0.195130000000    -0.0175613  
C410     C      0.990420000000     0.779560000000     0.125090000000    -0.108655   
C411     C      0.001200000000     0.763510000000     0.232000000000    -0.0307503  
C412     C      0.987240000000     0.809440000000     0.096670000000     0.0758568  
C413     C      0.961710000000     0.854290000000     0.144950000000     0.181055   
C414     C      0.002200000000     0.734140000000     0.261290000000    -0.0363842  
C415     C      0.984720000000     0.665790000000     0.286200000000     0.0481359  
C416     C      0.981000000000     0.787530000000     0.164570000000     0.0702371  
C417     C      0.000150000000     0.283570000000     0.321990000000    -0.137594   
C418     C      0.965420000000     0.097930000000     0.144810000000     0.0717672  
C419     C      0.985360000000     0.146160000000     0.097740000000     0.0713667  
C420     C      0.963460000000     0.126820000000     0.174400000000    -0.092384   
C421     C      0.980140000000     0.187450000000     0.237510000000    -0.0375096  
C422     C      0.979810000000     0.216530000000     0.267000000000    -0.0321351  
C423     C      0.973090000000     0.197380000000     0.197550000000    -0.00519688 
C424     C      0.985070000000     0.175530000000     0.126930000000    -0.0924935  
C425     C      0.973770000000     0.256730000000     0.257390000000    -0.0142813  
C426     C      0.953990000000     0.323380000000     0.285040000000    -0.104731   
C427     C      0.966800000000     0.266680000000     0.217430000000    -0.0321537  
C428     C      0.957140000000     0.352800000000     0.313890000000     0.0783964  
C429     C      0.002790000000     0.313510000000     0.350880000000     0.18327    
C430     C      0.965840000000     0.237420000000     0.188110000000    -0.037371   
C431     C      0.973750000000     0.166270000000     0.165940000000     0.0479739  
C432     C      0.975600000000     0.288090000000     0.288700000000     0.0670085  
H1       H      0.921190000000     0.921650000000     0.033630000000     0.207643   
H2       H      0.035430000000     0.034010000000     0.033110000000     0.210842   
H3       H      0.921500000000     0.035100000000     0.919740000000     0.210011   
H4       H      0.034260000000     0.920470000000     0.918960000000     0.210008   
H5       H      0.922530000000     0.535670000000     0.419750000000     0.209565   
H6       H      0.034340000000     0.419670000000     0.420280000000     0.208383   
H7       H      0.920680000000     0.422200000000     0.533910000000     0.209574   
H8       H      0.036620000000     0.533150000000     0.533310000000     0.209179   
H9       H      0.424340000000     0.919000000000     0.419180000000     0.208515   
H10      H      0.534550000000     0.036120000000     0.420420000000     0.209933   
H11      H      0.536590000000     0.922780000000     0.533990000000     0.209036   
H12      H      0.419140000000     0.032580000000     0.532240000000     0.20891    
H13      H      0.421890000000     0.534000000000     0.033640000000     0.208316   
H14      H      0.421490000000     0.421410000000     0.919330000000     0.208863   
H15      H      0.535280000000     0.420460000000     0.033320000000     0.20898    
H16      H      0.534860000000     0.534890000000     0.919870000000     0.210844   
H17      H      0.468270000000     0.156370000000     0.386080000000     0.0239519  
H18      H      0.494180000000     0.301860000000     0.067370000000     0.0207727  
H19      H      0.508860000000     0.241610000000     0.290260000000     0.0368141  
H20      H      0.447530000000     0.212170000000     0.159740000000     0.0361699  
H21      H      0.497070000000     0.250480000000     0.117110000000     0.0549255  
H22      H      0.447460000000     0.161360000000     0.211140000000     0.037308   
H23      H      0.451700000000     0.331660000000     0.204050000000     0.0649124  
H24      H      0.468090000000     0.206980000000     0.335350000000     0.051045   
H25      H      0.487680000000     0.116750000000     0.246570000000     0.0511885  
H26      H      0.507480000000     0.292800000000     0.239090000000     0.035909   
H27      H      0.486050000000     0.066740000000     0.297730000000     0.0238476  
H28      H      0.427050000000     0.393050000000     0.182870000000     0.088279   
H29      H      0.424310000000     0.406730000000     0.132580000000     0.110987   
H30      H      0.484710000000     0.656320000000     0.066710000000     0.0218067  
H31      H      0.468020000000     0.801880000000     0.385860000000     0.0207845  
H32      H      0.446250000000     0.741250000000     0.163780000000     0.0359138  
H33      H      0.512920000000     0.713140000000     0.291920000000     0.0359131  
H34      H      0.464530000000     0.750570000000     0.336220000000     0.0545161  
H35      H      0.511680000000     0.662120000000     0.240760000000     0.0369566  
H36      H      0.504990000000     0.832770000000     0.247850000000     0.0640534  
H37      H      0.485450000000     0.707040000000     0.117250000000     0.0502151  
H38      H      0.471150000000     0.616670000000     0.206880000000     0.0498222  
H39      H      0.448940000000     0.792670000000     0.214660000000     0.035016   
H40      H      0.472310000000     0.566510000000     0.155810000000     0.0200149  
H41      H      0.528950000000     0.894720000000     0.268260000000     0.0862092  
H42      H      0.533210000000     0.908400000000     0.318440000000     0.108704   
H43      H      0.482790000000     0.656910000000     0.887500000000     0.023476   
H44      H      0.465010000000     0.801750000000     0.568400000000     0.022492   
H45      H      0.530010000000     0.727030000000     0.780020000000     0.0375038  
H46      H      0.426960000000     0.729080000000     0.674960000000     0.0356959  
H47      H      0.463010000000     0.750790000000     0.618360000000     0.0542752  
H48      H      0.425270000000     0.677390000000     0.725730000000     0.0380019  
H49      H      0.502560000000     0.834980000000     0.705680000000     0.0635774  
H50      H      0.483070000000     0.708060000000     0.837000000000     0.0515835  
H51      H      0.469410000000     0.618400000000     0.746900000000     0.0519134  
H52      H      0.532900000000     0.777670000000     0.728640000000     0.0346927  
H53      H      0.469550000000     0.567650000000     0.797890000000     0.0242983  
H54      H      0.527240000000     0.895960000000     0.684150000000     0.087081   
H55      H      0.530920000000     0.909020000000     0.633780000000     0.103782   
H56      H      0.473350000000     0.299100000000     0.886830000000     0.0205509  
H57      H      0.485290000000     0.154540000000     0.567340000000     0.0176783  
H58      H      0.425510000000     0.227780000000     0.780790000000     0.0367349  
H59      H      0.525290000000     0.228130000000     0.672610000000     0.0348085  
H60      H      0.487600000000     0.205480000000     0.617180000000     0.0529275  
H61      H      0.527280000000     0.279930000000     0.723260000000     0.0376016  
H62      H      0.453770000000     0.120250000000     0.705810000000     0.0628981  
H63      H      0.472320000000     0.248070000000     0.836300000000     0.0505553  
H64      H      0.484010000000     0.337920000000     0.746100000000     0.0512309  
H65      H      0.422450000000     0.176880000000     0.729660000000     0.0346257  
H66      H      0.484660000000     0.388580000000     0.797190000000     0.0230336  
H67      H      0.430250000000     0.058530000000     0.685140000000     0.0856156  
H68      H      0.425060000000     0.045420000000     0.634930000000     0.10253    
H69      H      0.797630000000     0.391610000000     0.482470000000     0.0214842  
H70      H      0.650910000000     0.073210000000     0.459840000000     0.021486   
H71      H      0.710050000000     0.296330000000     0.443620000000     0.0362043  
H72      H      0.738970000000     0.166190000000     0.505970000000     0.0360047  
H73      H      0.701410000000     0.123600000000     0.456430000000     0.0549644  
H74      H      0.790040000000     0.217200000000     0.505320000000     0.0368164  
H75      H      0.619060000000     0.209830000000     0.500950000000     0.0643046  
H76      H      0.746040000000     0.341830000000     0.482710000000     0.0501436  
H77      H      0.834660000000     0.251240000000     0.464350000000     0.0512456  
H78      H      0.658510000000     0.245460000000     0.445740000000     0.0358067  
H79      H      0.885600000000     0.301400000000     0.465970000000     0.024502   
H80      H      0.557880000000     0.188000000000     0.525650000000     0.0860075  
H81      H      0.545110000000     0.137500000000     0.529090000000     0.106253   
H82      H      0.660180000000     0.892050000000     0.484620000000     0.0223671  
H83      H      0.805320000000     0.572790000000     0.460620000000     0.0213521  
H84      H      0.667180000000     0.717630000000     0.507410000000     0.0367752  
H85      H      0.798780000000     0.745100000000     0.447640000000     0.0358048  
H86      H      0.754940000000     0.623430000000     0.457950000000     0.0544476  
H87      H      0.747670000000     0.796430000000     0.445950000000     0.0367533  
H88      H      0.837950000000     0.709000000000     0.502520000000     0.0640998  
H89      H      0.711710000000     0.842080000000     0.485340000000     0.0503577  
H90      H      0.623040000000     0.751760000000     0.465900000000     0.0512983  
H91      H      0.717820000000     0.666180000000     0.507680000000     0.0348832  
H92      H      0.572270000000     0.801990000000     0.466970000000     0.0246641  
H93      H      0.899070000000     0.686700000000     0.526870000000     0.0859447  
H94      H      0.911640000000     0.636130000000     0.529790000000     0.107727   
H95      H      0.296650000000     0.063190000000     0.478970000000     0.0229459  
H96      H      0.151700000000     0.382800000000     0.459660000000     0.0207829  
H97      H      0.290070000000     0.237300000000     0.503150000000     0.0369712  
H98      H      0.158130000000     0.210730000000     0.443710000000     0.0350599  
H99      H      0.201910000000     0.332140000000     0.455420000000     0.0545578  
H100     H      0.209250000000     0.159440000000     0.440900000000     0.0368154  
H101     H      0.119430000000     0.245990000000     0.499820000000     0.0644726  
H102     H      0.245180000000     0.113200000000     0.479370000000     0.0507518  
H103     H      0.334160000000     0.203540000000     0.461500000000     0.0511267  
H104     H      0.239450000000     0.288720000000     0.504470000000     0.0360051  
H105     H      0.384880000000     0.153230000000     0.462950000000     0.0240316  
H106     H      0.058630000000     0.267900000000     0.525260000000     0.0871577  
H107     H      0.046070000000     0.318380000000     0.529310000000     0.109563   
H108     H      0.302550000000     0.883120000000     0.482830000000     0.0240452  
H109     H      0.155970000000     0.565070000000     0.458330000000     0.022229   
H110     H      0.219850000000     0.786800000000     0.440060000000     0.0368198  
H111     H      0.247430000000     0.656910000000     0.503510000000     0.0356775  
H112     H      0.208300000000     0.613770000000     0.454460000000     0.0549739  
H113     H      0.298640000000     0.707980000000     0.503680000000     0.0366963  
H114     H      0.128880000000     0.703080000000     0.498220000000     0.0647777  
H115     H      0.252730000000     0.831850000000     0.481800000000     0.0510919  
H116     H      0.344470000000     0.744060000000     0.465160000000     0.0505174  
H117     H      0.168320000000     0.736080000000     0.441390000000     0.0364331  
H118     H      0.393850000000     0.795970000000     0.467990000000     0.0222795  
H119     H      0.067220000000     0.683570000000     0.523450000000     0.0870841  
H120     H      0.052640000000     0.633630000000     0.527320000000     0.102956   
H121     H      0.568160000000     0.472460000000     0.155910000000     0.0238144  
H122     H      0.887080000000     0.494990000000     0.301650000000     0.0208448  
H123     H      0.742780000000     0.450080000000     0.161560000000     0.0369091  
H124     H      0.715290000000     0.511830000000     0.292300000000     0.0358112  
H125     H      0.837410000000     0.498520000000     0.250320000000     0.0546441  
H126     H      0.664310000000     0.513370000000     0.240940000000     0.036954   
H127     H      0.749410000000     0.456660000000     0.332180000000     0.0645628  
H128     H      0.618740000000     0.472910000000     0.206640000000     0.0509226  
H129     H      0.707870000000     0.490020000000     0.116310000000     0.051217   
H130     H      0.793990000000     0.449920000000     0.212520000000     0.0356405  
H131     H      0.656830000000     0.487790000000     0.066180000000     0.024355   
H132     H      0.769930000000     0.432430000000     0.393930000000     0.0870873  
H133     H      0.820110000000     0.428390000000     0.407590000000     0.108791   
H134     H      0.157310000000     0.480980000000     0.386260000000     0.0227379  
H135     H      0.303500000000     0.456180000000     0.067780000000     0.0222242  
H136     H      0.241660000000     0.438770000000     0.290310000000     0.0364605  
H137     H      0.213570000000     0.501430000000     0.160140000000     0.0360661  
H138     H      0.252080000000     0.451620000000     0.117320000000     0.054987   
H139     H      0.162600000000     0.501840000000     0.211310000000     0.0372832  
H140     H      0.332300000000     0.496610000000     0.205280000000     0.0639744  
H141     H      0.207850000000     0.479660000000     0.335550000000     0.0506368  
H142     H      0.117080000000     0.463070000000     0.246740000000     0.0514279  
H143     H      0.293090000000     0.439930000000     0.239380000000     0.0353196  
H144     H      0.067160000000     0.466300000000     0.297910000000     0.0243105  
H145     H      0.393260000000     0.522650000000     0.184800000000     0.0855291  
H146     H      0.406760000000     0.527110000000     0.134620000000     0.101836   
H147     H      0.069140000000     0.481490000000     0.655400000000     0.0233195  
H148     H      0.387490000000     0.460240000000     0.801500000000     0.0209283  
H149     H      0.165230000000     0.441560000000     0.740900000000     0.0369163  
H150     H      0.294880000000     0.504380000000     0.710980000000     0.0357687  
H151     H      0.337900000000     0.455730000000     0.750180000000     0.0549313  
H152     H      0.243690000000     0.502980000000     0.660020000000     0.0368132  
H153     H      0.250380000000     0.501840000000     0.830270000000     0.0648248  
H154     H      0.119810000000     0.481410000000     0.705970000000     0.050912   
H155     H      0.208590000000     0.462210000000     0.615710000000     0.0512682  
H156     H      0.216170000000     0.444480000000     0.792240000000     0.0360121  
H157     H      0.157440000000     0.464150000000     0.565660000000     0.0244626  
H158     H      0.271340000000     0.528170000000     0.891150000000     0.0866048  
H159     H      0.321680000000     0.531650000000     0.904590000000     0.107296   
H160     H      0.655590000000     0.494100000000     0.886160000000     0.0212163  
H161     H      0.881140000000     0.443290000000     0.644340000000     0.018774   
H162     H      0.747920000000     0.461520000000     0.796060000000     0.0357133  
H163     H      0.709460000000     0.489350000000     0.657000000000     0.0345834  
H164     H      0.830200000000     0.438220000000     0.693940000000     0.0539244  
H165     H      0.659140000000     0.490170000000     0.707840000000     0.0362865  
H166     H      0.760210000000     0.524080000000     0.630150000000     0.0640292  
H167     H      0.706160000000     0.495330000000     0.835840000000     0.0499397  
H168     H      0.619760000000     0.455850000000     0.749630000000     0.0505868  
H169     H      0.798880000000     0.466090000000     0.746120000000     0.0345624  
H170     H      0.569320000000     0.458280000000     0.800150000000     0.023671   
H171     H      0.786240000000     0.552750000000     0.572640000000     0.0887258  
H172     H      0.835090000000     0.544020000000     0.556160000000     0.109428   
H173     H      0.656720000000     0.568620000000     0.984190000000     0.0232119  
H174     H      0.802080000000     0.887480000000     0.959080000000     0.0222388  
H175     H      0.741120000000     0.664820000000     0.942830000000     0.036657   
H176     H      0.712410000000     0.794900000000     0.005440000000     0.0369096  
H177     H      0.750580000000     0.837880000000     0.955680000000     0.0546298  
H178     H      0.661630000000     0.743500000000     0.005770000000     0.0381541  
H179     H      0.831450000000     0.750330000000     0.000340000000     0.06617    
H180     H      0.707200000000     0.619450000000     0.983750000000     0.0506655  
H181     H      0.616510000000     0.708160000000     0.966210000000     0.0503844  
H182     H      0.792310000000     0.715970000000     0.944020000000     0.0363438  
H183     H      0.566660000000     0.656910000000     0.968490000000     0.0227677  
H184     H      0.892770000000     0.771140000000     0.025390000000     0.0875636  
H185     H      0.906490000000     0.821380000000     0.028730000000     0.103847   
H186     H      0.889110000000     0.157470000000     0.972470000000     0.0237982  
H187     H      0.569760000000     0.302640000000     0.992190000000     0.0201049  
H188     H      0.714790000000     0.163200000000     0.946690000000     0.0367099  
H189     H      0.741090000000     0.293920000000     0.008970000000     0.0373244  
H190     H      0.619670000000     0.251520000000     0.995650000000     0.0543908  
H191     H      0.792200000000     0.242700000000     0.011180000000     0.0382109  
H192     H      0.706980000000     0.333380000000     0.952380000000     0.0645932  
H193     H      0.838600000000     0.208300000000     0.972180000000     0.0506518  
H194     H      0.749000000000     0.117930000000     0.986550000000     0.0497356  
H195     H      0.663410000000     0.213960000000     0.946090000000     0.0359648  
H196     H      0.799900000000     0.067790000000     0.984680000000     0.0195091  
H197     H      0.685910000000     0.394780000000     0.927600000000     0.0873877  
H198     H      0.635630000000     0.408200000000     0.923950000000     0.109151   
H199     H      0.156340000000     0.886830000000     0.981150000000     0.022944   
H200     H      0.301590000000     0.567760000000     0.964120000000     0.0179364  
H201     H      0.162230000000     0.712890000000     0.007300000000     0.0383453  
H202     H      0.291680000000     0.738950000000     0.942380000000     0.0361734  
H203     H      0.250210000000     0.617160000000     0.960140000000     0.0534654  
H204     H      0.240200000000     0.789780000000     0.940430000000     0.0366203  
H205     H      0.332630000000     0.706520000000     0.997820000000     0.0639694  
H206     H      0.206900000000     0.836140000000     0.981070000000     0.0505977  
H207     H      0.116230000000     0.746840000000     0.966910000000     0.0504283  
H208     H      0.213330000000     0.661810000000     0.007970000000     0.037      
H209     H      0.066220000000     0.798080000000     0.968680000000     0.0225639  
H210     H      0.394760000000     0.686720000000     0.021580000000     0.0866673  
H211     H      0.408500000000     0.636670000000     0.026810000000     0.10256    
H212     H      0.157590000000     0.066970000000     0.969350000000     0.0240685  
H213     H      0.303060000000     0.385950000000     0.995020000000     0.0216301  
H214     H      0.163100000000     0.242000000000     0.947020000000     0.03616    
H215     H      0.293880000000     0.214260000000     0.008450000000     0.0376757  
H216     H      0.251850000000     0.336040000000     0.998180000000     0.0546305  
H217     H      0.242710000000     0.163080000000     0.009510000000     0.0381691  
H218     H      0.332900000000     0.249410000000     0.952090000000     0.0642392  
H219     H      0.208320000000     0.117600000000     0.969400000000     0.0505948  
H220     H      0.117970000000     0.206820000000     0.986190000000     0.0498668  
H221     H      0.213810000000     0.293430000000     0.947580000000     0.0357083  
H222     H      0.067930000000     0.155810000000     0.984170000000     0.0209603  
H223     H      0.393920000000     0.270850000000     0.926800000000     0.0861839  
H224     H      0.407250000000     0.321220000000     0.923800000000     0.102431   
H225     H      0.798670000000     0.982290000000     0.887790000000     0.0225123  
H226     H      0.652970000000     0.966740000000     0.569020000000     0.020919   
H227     H      0.791420000000     0.011710000000     0.714310000000     0.0377865  
H228     H      0.662030000000     0.946510000000     0.740010000000     0.0347182  
H229     H      0.703970000000     0.963460000000     0.618870000000     0.054313   
H230     H      0.713650000000     0.943990000000     0.790710000000     0.036289   
H231     H      0.620960000000     0.002510000000     0.707070000000     0.0655149  
H232     H      0.747630000000     0.983040000000     0.837600000000     0.0502873  
H233     H      0.837550000000     0.971220000000     0.747190000000     0.0491888  
H234     H      0.740270000000     0.012750000000     0.663340000000     0.0370903  
H235     H      0.887990000000     0.972490000000     0.797920000000     0.018984   
H236     H      0.558850000000     0.025860000000     0.686560000000     0.0875694  
H237     H      0.545390000000     0.030560000000     0.636380000000     0.109995   
H238     H      0.298390000000     0.978450000000     0.565040000000     0.0228115  
H239     H      0.153110000000     0.960650000000     0.884650000000     0.0207687  
H240     H      0.213140000000     0.939820000000     0.662110000000     0.0369232  
H241     H      0.241970000000     0.005360000000     0.790700000000     0.0369215  
H242     H      0.204230000000     0.956530000000     0.834790000000     0.0543479  
H243     H      0.292730000000     0.004400000000     0.739340000000     0.0371892  
H244     H      0.122500000000     0.998900000000     0.746920000000     0.0643608  
H245     H      0.247580000000     0.978650000000     0.615570000000     0.0504348  
H246     H      0.337920000000     0.964320000000     0.705190000000     0.0501257  
H247     H      0.161930000000     0.942330000000     0.713220000000     0.0363194  
H248     H      0.388050000000     0.966040000000     0.654220000000     0.0224115  
H249     H      0.061160000000     0.023970000000     0.767650000000     0.0881981  
H250     H      0.047780000000     0.028330000000     0.817890000000     0.110379   
H251     H      0.157410000000     0.969530000000     0.065390000000     0.0237735  
H252     H      0.303930000000     0.991410000000     0.383830000000     0.0225146  
H253     H      0.243210000000     0.009200000000     0.161200000000     0.0382162  
H254     H      0.215540000000     0.945210000000     0.290810000000     0.0356919  
H255     H      0.252780000000     0.994290000000     0.334020000000     0.0547781  
H256     H      0.164370000000     0.945440000000     0.239830000000     0.0372138  
H257     H      0.335240000000     0.952930000000     0.246340000000     0.0642347  
H258     H      0.208480000000     0.969070000000     0.115610000000     0.0507924  
H259     H      0.118940000000     0.985810000000     0.205600000000     0.0511058  
H260     H      0.294790000000     0.007610000000     0.211970000000     0.0375824  
H261     H      0.068440000000     0.984510000000     0.154880000000     0.0241773  
H262     H      0.397230000000     0.929550000000     0.267070000000     0.0872857  
H263     H      0.410870000000     0.925750000000     0.317270000000     0.103925   
H264     H      0.569740000000     0.983000000000     0.298600000000     0.0202954  
H265     H      0.888770000000     0.965640000000     0.153280000000     0.0168843  
H266     H      0.743750000000     0.010000000000     0.293050000000     0.0380343  
H267     H      0.717950000000     0.944930000000     0.163580000000     0.0357256  
H268     H      0.839460000000     0.961840000000     0.204830000000     0.0533922  
H269     H      0.667100000000     0.942870000000     0.215030000000     0.0361925  
H270     H      0.750400000000     0.001480000000     0.123030000000     0.0663431  
H271     H      0.620500000000     0.982800000000     0.248150000000     0.0497193  
H272     H      0.709690000000     0.970420000000     0.339210000000     0.0505085  
H273     H      0.794910000000     0.010570000000     0.242030000000     0.0369831  
H274     H      0.658360000000     0.972450000000     0.389090000000     0.0233355  
H275     H      0.770410000000     0.025880000000     0.061130000000     0.087397   
H276     H      0.820540000000     0.030540000000     0.047450000000     0.109647   
H277     H      0.985530000000     0.387580000000     0.655540000000     0.0234651  
H278     H      0.963420000000     0.068780000000     0.800960000000     0.0194212  
H279     H      0.946490000000     0.291280000000     0.740960000000     0.0363886  
H280     H      0.009720000000     0.161670000000     0.711540000000     0.0363079  
H281     H      0.960490000000     0.118530000000     0.749680000000     0.0538895  
H282     H      0.008930000000     0.213010000000     0.660670000000     0.0375035  
H283     H      0.005050000000     0.205630000000     0.831110000000     0.0659973  
H284     H      0.986370000000     0.336930000000     0.706190000000     0.0504895  
H285     H      0.968140000000     0.247760000000     0.616070000000     0.0497486  
H286     H      0.948750000000     0.240200000000     0.792200000000     0.0357475  
H287     H      0.969150000000     0.298870000000     0.565980000000     0.0208449  
H288     H      0.029730000000     0.184440000000     0.892520000000     0.087216   
H289     H      0.032660000000     0.134140000000     0.906100000000     0.108774   
H290     H      0.976420000000     0.656740000000     0.565470000000     0.0174683  
H291     H      0.990860000000     0.801780000000     0.884670000000     0.0208876  
H292     H      0.927130000000     0.726960000000     0.672420000000     0.0370425  
H293     H      0.029090000000     0.728970000000     0.778550000000     0.035317   
H294     H      0.993050000000     0.750810000000     0.834770000000     0.0539012  
H295     H      0.031250000000     0.677280000000     0.727810000000     0.0375769  
H296     H      0.953090000000     0.834760000000     0.747400000000     0.0637632  
H297     H      0.975560000000     0.707950000000     0.615900000000     0.0495362  
H298     H      0.986420000000     0.618280000000     0.706360000000     0.0516227  
H299     H      0.923640000000     0.777530000000     0.723840000000     0.0347708  
H300     H      0.986540000000     0.567450000000     0.655460000000     0.0234395  
H301     H      0.927840000000     0.895520000000     0.769010000000     0.0863859  
H302     H      0.924240000000     0.908440000000     0.819450000000     0.108425   
H303     H      0.976620000000     0.656380000000     0.386000000000     0.0242051  
H304     H      0.996710000000     0.802070000000     0.066810000000     0.0213889  
H305     H      0.016820000000     0.740770000000     0.289100000000     0.0372289  
H306     H      0.952170000000     0.712110000000     0.160050000000     0.034915   
H307     H      0.001100000000     0.750550000000     0.116290000000     0.0563141  
H308     H      0.952780000000     0.661230000000     0.211360000000     0.0365214  
H309     H      0.957540000000     0.831180000000     0.204610000000     0.0642641  
H310     H      0.977150000000     0.706850000000     0.335180000000     0.050805   
H311     H      0.992150000000     0.615880000000     0.246270000000     0.0508757  
H312     H      0.014620000000     0.792070000000     0.238080000000     0.0364614  
H313     H      0.989710000000     0.566030000000     0.297580000000     0.0235357  
H314     H      0.931690000000     0.892360000000     0.184150000000     0.0857681  
H315     H      0.927430000000     0.905900000000     0.133920000000     0.100068   
H316     H      0.994400000000     0.154800000000     0.068100000000     0.0224648  
H317     H      0.939090000000     0.379220000000     0.310140000000     0.0222413  
H318     H      0.959340000000     0.246480000000     0.158010000000     0.0364405  
H319     H      0.984380000000     0.207230000000     0.297390000000     0.0345298  
H320     H      0.933990000000     0.328260000000     0.260420000000     0.0543771  
H321     H      0.986550000000     0.157250000000     0.246280000000     0.0361465  
H322     H      0.019010000000     0.257700000000     0.324720000000     0.0638656  
H323     H      0.994370000000     0.205140000000     0.118760000000     0.0506792  
H324     H      0.953420000000     0.118010000000     0.203590000000     0.0510348  
H325     H      0.962640000000     0.297180000000     0.208370000000     0.0347679  
H326     H      0.957150000000     0.067900000000     0.152870000000     0.0247396  
H327     H      0.047400000000     0.283410000000     0.382400000000     0.0886868  
H328     H      0.039050000000     0.332310000000     0.398890000000     0.101472   
N1       N      0.471130000000     0.347010000000     0.106270000000    -0.211061   
N2       N      0.477110000000     0.107640000000     0.345880000000    -0.192527   
N3       N      0.436360000000     0.387720000000     0.153760000000    -0.219553   
N4       N      0.488670000000     0.847660000000     0.346310000000    -0.211184   
N5       N      0.478620000000     0.607460000000     0.107290000000    -0.193237   
N6       N      0.520820000000     0.889160000000     0.297670000000    -0.219683   
N7       N      0.485990000000     0.847920000000     0.607200000000    -0.210671   
N8       N      0.476330000000     0.608310000000     0.846620000000    -0.192515   
N9       N      0.518740000000     0.890040000000     0.654910000000    -0.218657   
N10      N      0.467750000000     0.107520000000     0.606860000000    -0.211027   
N11      N      0.478880000000     0.347830000000     0.845960000000    -0.192875   
N12      N      0.437600000000     0.064640000000     0.655630000000    -0.218746   
N13      N      0.605140000000     0.111520000000     0.482710000000    -0.210486   
N14      N      0.845650000000     0.350400000000     0.474560000000    -0.192886   
N15      N      0.563680000000     0.158860000000     0.516730000000    -0.219259   
N16      N      0.851390000000     0.610850000000     0.483240000000    -0.211572   
N17      N      0.612220000000     0.850930000000     0.476040000000    -0.192509   
N18      N      0.893130000000     0.657670000000     0.517670000000    -0.21956    
N19      N      0.105910000000     0.344510000000     0.482490000000    -0.211228   
N20      N      0.344770000000     0.104320000000     0.471370000000    -0.192417   
N21      N      0.064490000000     0.297100000000     0.516570000000    -0.219304   
N22      N      0.111630000000     0.605240000000     0.480740000000    -0.210598   
N23      N      0.352070000000     0.843580000000     0.475450000000    -0.192678   
N24      N      0.071960000000     0.654190000000     0.514720000000    -0.218728   
N25      N      0.847710000000     0.473590000000     0.347190000000    -0.210823   
N26      N      0.608530000000     0.479900000000     0.107090000000    -0.192281   
N27      N      0.799280000000     0.440810000000     0.388450000000    -0.219416   
N28      N      0.348130000000     0.479500000000     0.107110000000    -0.211144   
N29      N      0.108310000000     0.473870000000     0.346060000000    -0.192651   
N30      N      0.388110000000     0.513980000000     0.155460000000    -0.218979   
N31      N      0.348320000000     0.483830000000     0.846150000000    -0.21117    
N32      N      0.109340000000     0.473080000000     0.606590000000    -0.192693   
N33      N      0.300510000000     0.518990000000     0.886010000000    -0.219419   
N34      N      0.849810000000     0.484730000000     0.607550000000    -0.21269    
N35      N      0.608560000000     0.476410000000     0.846960000000    -0.193691   
N36      N      0.812060000000     0.535750000000     0.575030000000    -0.220319   
N37      N      0.847060000000     0.848260000000     0.981880000000    -0.210644   
N38      N      0.607780000000     0.608780000000     0.976460000000    -0.1928     
N39      N      0.887530000000     0.800350000000     0.016350000000    -0.218121   
N40      N      0.608770000000     0.348170000000     0.970080000000    -0.210822   
N41      N      0.848500000000     0.108670000000     0.978510000000    -0.192965   
N42      N      0.656670000000     0.389270000000     0.936350000000    -0.219326   
N43      N      0.347710000000     0.607890000000     0.982750000000    -0.210606   
N44      N      0.107350000000     0.846430000000     0.975020000000    -0.192746   
N45      N      0.389250000000     0.657150000000     0.013970000000    -0.21762    
N46      N      0.348090000000     0.347280000000     0.971410000000    -0.2105     
N47      N      0.108840000000     0.107400000000     0.976710000000    -0.192939   
N48      N      0.388570000000     0.299930000000     0.936170000000    -0.218625   
N49      N      0.606760000000     0.986800000000     0.608390000000    -0.211382   
N50      N      0.847310000000     0.977400000000     0.846810000000    -0.193375   
N51      N      0.564640000000     0.018100000000     0.657090000000    -0.219051   
N52      N      0.107650000000     0.982390000000     0.845370000000    -0.210364   
N53      N      0.347170000000     0.972440000000     0.605650000000    -0.192817   
N54      N      0.066650000000     0.015590000000     0.797000000000    -0.218634   
N55      N      0.349790000000     0.970250000000     0.344690000000    -0.210344   
N56      N      0.108950000000     0.976970000000     0.106190000000    -0.19217    
N57      N      0.391590000000     0.937890000000     0.296410000000    -0.218767   
N58      N      0.848780000000     0.985460000000     0.107520000000    -0.211046   
N59      N      0.610070000000     0.977910000000     0.347770000000    -0.193216   
N60      N      0.799860000000     0.017780000000     0.066510000000    -0.218759   
N61      N      0.985950000000     0.107750000000     0.846340000000    -0.211821   
N62      N      0.977350000000     0.347200000000     0.606830000000    -0.193363   
N63      N      0.020520000000     0.155310000000     0.887150000000    -0.218762   
N64      N      0.969650000000     0.847850000000     0.845850000000    -0.210777   
N65      N      0.981160000000     0.608090000000     0.606530000000    -0.193617   
N66      N      0.936500000000     0.889650000000     0.798210000000    -0.219361   
N67      N      0.974390000000     0.847000000000     0.106390000000    -0.211141   
N68      N      0.982910000000     0.607280000000     0.345770000000    -0.192414   
N69      N      0.940340000000     0.887170000000     0.154820000000    -0.218595   
N70      N      0.980110000000     0.347550000000     0.347080000000    -0.213034   
N71      N      0.976010000000     0.107530000000     0.106660000000    -0.193249   
N72      N      0.030650000000     0.309390000000     0.379930000000    -0.219239   
O1       O      0.978920000000     0.090120000000     0.041100000000    -0.376832   
O2       O      0.976890000000     0.865030000000     0.040800000000    -0.380773   
O3       O      0.914210000000     0.981150000000     0.089230000000    -0.37951    
O4       O      0.043250000000     0.977770000000     0.088660000000    -0.376692   
O5       O      0.090940000000     0.976100000000     0.040580000000    -0.375584   
O6       O      0.866160000000     0.980740000000     0.041720000000    -0.377659   
O7       O      0.977480000000     0.912790000000     0.088690000000    -0.379393   
O8       O      0.976200000000     0.042060000000     0.088800000000    -0.374823   
O9       O      0.018230000000     0.937080000000     0.016350000000    -0.504708   
O10      O      0.938520000000     0.017940000000     0.016690000000    -0.506756   
O11      O      0.937830000000     0.937780000000     0.016800000000    -0.651643   
O12      O      0.018810000000     0.017580000000     0.016540000000    -0.64917    
O13      O      0.973490000000     0.865270000000     0.911600000000    -0.37634    
O14      O      0.981320000000     0.090080000000     0.911990000000    -0.380327   
O15      O      0.865110000000     0.913830000000     0.978860000000    -0.378389   
O16      O      0.090080000000     0.912200000000     0.976020000000    -0.377624   
O17      O      0.091080000000     0.041670000000     0.975620000000    -0.374199   
O18      O      0.866140000000     0.043040000000     0.978010000000    -0.380069   
O19      O      0.913000000000     0.977850000000     0.864340000000    -0.38166    
O20      O      0.042100000000     0.978410000000     0.863600000000    -0.377761   
O21      O      0.865280000000     0.977820000000     0.912400000000    -0.378145   
O22      O      0.090160000000     0.979700000000     0.911150000000    -0.377185   
O23      O      0.912700000000     0.865770000000     0.977650000000    -0.37679    
O24      O      0.914160000000     0.090770000000     0.977010000000    -0.376454   
O25      O      0.043300000000     0.089650000000     0.977040000000    -0.380403   
O26      O      0.041840000000     0.864640000000     0.975340000000    -0.378054   
O27      O      0.975300000000     0.913250000000     0.863990000000    -0.379652   
O28      O      0.981020000000     0.042270000000     0.864190000000    -0.382313   
O29      O      0.018160000000     0.017420000000     0.936390000000    -0.508242   
O30      O      0.937410000000     0.937860000000     0.936440000000    -0.508628   
O31      O      0.937840000000     0.018360000000     0.936280000000    -0.650475   
O32      O      0.018050000000     0.937050000000     0.935780000000    -0.65055    
O33      O      0.979300000000     0.365050000000     0.412520000000    -0.380202   
O34      O      0.981210000000     0.589950000000     0.411560000000    -0.376303   
O35      O      0.913440000000     0.475860000000     0.364720000000    -0.377448   
O36      O      0.042810000000     0.475160000000     0.364170000000    -0.375248   
O37      O      0.090980000000     0.475790000000     0.411810000000    -0.378589   
O38      O      0.865860000000     0.478290000000     0.412720000000    -0.380243   
O39      O      0.981020000000     0.541780000000     0.363930000000    -0.378137   
O40      O      0.976520000000     0.412840000000     0.364440000000    -0.377574   
O41      O      0.019650000000     0.516850000000     0.436250000000    -0.506281   
O42      O      0.937500000000     0.438430000000     0.436980000000    -0.509664   
O43      O      0.938850000000     0.518880000000     0.436260000000    -0.651802   
O44      O      0.017980000000     0.436600000000     0.436590000000    -0.652159   
O45      O      0.980450000000     0.590070000000     0.540970000000    -0.382941   
O46      O      0.975960000000     0.365160000000     0.541310000000    -0.382117   
O47      O      0.867760000000     0.544920000000     0.479150000000    -0.380795   
O48      O      0.092560000000     0.539950000000     0.478220000000    -0.378723   
O49      O      0.089550000000     0.410530000000     0.479050000000    -0.377375   
O50      O      0.864620000000     0.415710000000     0.477480000000    -0.380488   
O51      O      0.914830000000     0.479210000000     0.589650000000    -0.380468   
O52      O      0.043720000000     0.475920000000     0.589130000000    -0.376583   
O53      O      0.866820000000     0.483580000000     0.541940000000    -0.378327   
O54      O      0.091340000000     0.473710000000     0.541040000000    -0.375209   
O55      O      0.916620000000     0.591630000000     0.478750000000    -0.379046   
O56      O      0.911570000000     0.366980000000     0.474420000000    -0.376252   
O57      O      0.040670000000     0.363840000000     0.479240000000    -0.38055    
O58      O      0.045670000000     0.588670000000     0.476950000000    -0.377653   
O59      O      0.980520000000     0.542340000000     0.589060000000    -0.376924   
O60      O      0.979140000000     0.412900000000     0.589230000000    -0.376695   
O61      O      0.018140000000     0.436680000000     0.516790000000    -0.507866   
O62      O      0.939910000000     0.518570000000     0.516860000000    -0.510269   
O63      O      0.937580000000     0.438320000000     0.517310000000    -0.651591   
O64      O      0.019770000000     0.517020000000     0.516690000000    -0.651442   
O65      O      0.591710000000     0.979010000000     0.413260000000    -0.377629   
O66      O      0.366860000000     0.972770000000     0.410510000000    -0.378439   
O67      O      0.483260000000     0.913230000000     0.364160000000    -0.382717   
O68      O      0.478370000000     0.042140000000     0.363960000000    -0.37654    
O69      O      0.475780000000     0.090180000000     0.411630000000    -0.375651   
O70      O      0.484970000000     0.865430000000     0.411940000000    -0.377106   
O71      O      0.415190000000     0.975370000000     0.363280000000    -0.378191   
O72      O      0.544300000000     0.978570000000     0.364900000000    -0.380366   
O73      O      0.437460000000     0.016650000000     0.435820000000    -0.505379   
O74      O      0.520080000000     0.938840000000     0.437060000000    -0.508327   
O75      O      0.439960000000     0.936200000000     0.435930000000    -0.652145   
O76      O      0.518170000000     0.019150000000     0.436690000000    -0.650762   
O77      O      0.365130000000     0.974320000000     0.539990000000    -0.376371   
O78      O      0.589750000000     0.983410000000     0.542580000000    -0.378345   
O79      O      0.417290000000     0.862990000000     0.475630000000    -0.378647   
O80      O      0.410630000000     0.087920000000     0.472890000000    -0.375472   
O81      O      0.539830000000     0.092050000000     0.479040000000    -0.379454   
O82      O      0.546370000000     0.867380000000     0.475500000000    -0.375308   
O83      O      0.480250000000     0.913220000000     0.588860000000    -0.378495   
O84      O      0.474210000000     0.042180000000     0.588590000000    -0.381972   
O85      O      0.482940000000     0.865140000000     0.541370000000    -0.378464   
O86      O      0.471760000000     0.090160000000     0.541010000000    -0.380876   
O87      O      0.368140000000     0.909600000000     0.476610000000    -0.375792   
O88      O      0.593130000000     0.916310000000     0.478060000000    -0.37663    
O89      O      0.588900000000     0.045530000000     0.479520000000    -0.377392   
O90      O      0.363820000000     0.038960000000     0.473960000000    -0.375581   
O91      O      0.412780000000     0.973880000000     0.588100000000    -0.379677   
O92      O      0.541400000000     0.981580000000     0.589740000000    -0.383547   
O93      O      0.516830000000     0.018970000000     0.516940000000    -0.508483   
O94      O      0.438870000000     0.936150000000     0.516260000000    -0.506804   
O95      O      0.519550000000     0.938580000000     0.517240000000    -0.653147   
O96      O      0.436570000000     0.016650000000     0.516020000000    -0.652033   
O97      O      0.413670000000     0.365320000000     0.975000000000    -0.377145   
O98      O      0.413370000000     0.590110000000     0.977930000000    -0.379052   
O99      O      0.365810000000     0.477450000000     0.041410000000    -0.376948   
O100     O      0.365940000000     0.480560000000     0.911930000000    -0.379101   
O101     O      0.413790000000     0.480300000000     0.864150000000    -0.378794   
O102     O      0.413780000000     0.477500000000     0.089060000000    -0.382356   
O103     O      0.365650000000     0.542260000000     0.979420000000    -0.380816   
O104     O      0.365670000000     0.412970000000     0.974850000000    -0.378822   
O105     O      0.437900000000     0.518000000000     0.936570000000    -0.50756    
O106     O      0.438030000000     0.437360000000     0.016680000000    -0.506952   
O107     O      0.438250000000     0.517540000000     0.016870000000    -0.652492   
O108     O      0.437980000000     0.437690000000     0.936170000000    -0.652526   
O109     O      0.542340000000     0.590600000000     0.976300000000    -0.377973   
O110     O      0.543080000000     0.365700000000     0.973660000000    -0.378323   
O111     O      0.478210000000     0.541860000000     0.089300000000    -0.379324   
O112     O      0.477240000000     0.542620000000     0.864190000000    -0.376794   
O113     O      0.478800000000     0.413510000000     0.863780000000    -0.376966   
O114     O      0.475890000000     0.412630000000     0.088720000000    -0.380123   
O115     O      0.590650000000     0.479490000000     0.041490000000    -0.375896   
O116     O      0.590730000000     0.479140000000     0.912420000000    -0.381221   
O117     O      0.542860000000     0.477710000000     0.089420000000    -0.376705   
O118     O      0.542960000000     0.475750000000     0.864490000000    -0.376581   
O119     O      0.479310000000     0.589930000000     0.041570000000    -0.378653   
O120     O      0.475340000000     0.364970000000     0.040740000000    -0.378016   
O121     O      0.478450000000     0.365560000000     0.911610000000    -0.378692   
O122     O      0.477180000000     0.590390000000     0.912220000000    -0.376336   
O123     O      0.590470000000     0.543000000000     0.977740000000    -0.375754   
O124     O      0.590710000000     0.413720000000     0.974590000000    -0.380001   
O125     O      0.518310000000     0.438160000000     0.936720000000    -0.509128   
O126     O      0.518200000000     0.518060000000     0.017090000000    -0.50681    
O127     O      0.518770000000     0.437160000000     0.016900000000    -0.650878   
O128     O      0.518410000000     0.518300000000     0.936430000000    -0.653158   
Zr1      Zr     0.978510000000     0.977570000000     0.056320000000     1.42551    
Zr2      Zr     0.977510000000     0.897730000000     0.976230000000     1.42276    
Zr3      Zr     0.978570000000     0.057600000000     0.976540000000     1.42662    
Zr4      Zr     0.898160000000     0.978240000000     0.976840000000     1.42465    
Zr5      Zr     0.058110000000     0.977110000000     0.976060000000     1.42306    
Zr6      Zr     0.977740000000     0.977710000000     0.896600000000     1.42341    
Zr7      Zr     0.978300000000     0.477430000000     0.396860000000     1.4259     
Zr8      Zr     0.980370000000     0.557540000000     0.476330000000     1.42422    
Zr9      Zr     0.976950000000     0.397840000000     0.476880000000     1.42778    
Zr10     Zr     0.898750000000     0.479580000000     0.477140000000     1.42632    
Zr11     Zr     0.058660000000     0.475980000000     0.476580000000     1.42938    
Zr12     Zr     0.979110000000     0.477590000000     0.556720000000     1.42901    
Zr13     Zr     0.479370000000     0.977710000000     0.396690000000     1.42593    
Zr14     Zr     0.398440000000     0.975260000000     0.475600000000     1.42482    
Zr15     Zr     0.558420000000     0.979970000000     0.477500000000     1.42742    
Zr16     Zr     0.480840000000     0.897680000000     0.476630000000     1.42884    
Zr17     Zr     0.476110000000     0.057640000000     0.476310000000     1.42642    
Zr18     Zr     0.477490000000     0.977610000000     0.556190000000     1.42559    
Zr19     Zr     0.398220000000     0.477650000000     0.976670000000     1.42606    
Zr20     Zr     0.478040000000     0.557700000000     0.976770000000     1.42758    
Zr21     Zr     0.478260000000     0.397880000000     0.976340000000     1.42509    
Zr22     Zr     0.478360000000     0.477300000000     0.056560000000     1.42711    
Zr23     Zr     0.478240000000     0.478010000000     0.896710000000     1.43001    
Zr24     Zr     0.558090000000     0.478240000000     0.976910000000     1.42606    


