data_structure

_audit_creation_method RASPA-1.0
_audit_creation_date 2023-5-25
_audit_author_name 'Poobodin Mano'

_cell_length_a    27.1434
_cell_length_b    27.1551
_cell_length_c    27.2531
_cell_angle_alpha 90
_cell_angle_beta  90
_cell_angle_gamma 90
_cell_volume      20087.8

_symmetry_cell_setting          triclinic
_symmetry_space_group_name_Hall 'P 1'
_symmetry_space_group_name_H-M  'P 1'
_symmetry_Int_Tables_number     1

_symmetry_equiv_pos_as_xyz 'x,y,z'

loop_
_atom_site_label
_atom_site_type_symbol
_atom_site_fract_x
_atom_site_fract_y
_atom_site_fract_z
_atom_site_charge
C1       C      0.988390000000     0.120350000000     0.121650000000     0.392362   
C2       C      0.014280000000     0.870110000000     0.119200000000     0.393844   
C3       C      0.875220000000     0.987360000000     0.126940000000     0.397905   
C4       C      0.126020000000     0.003740000000     0.114100000000     0.392692   
C5       C      0.987930000000     0.871650000000     0.869900000000     0.395952   
C6       C      0.971490000000     0.121730000000     0.871530000000     0.392075   
C7       C      0.879460000000     0.860300000000     0.000110000000     0.397889   
C8       C      0.129820000000     0.880910000000     0.984380000000     0.391567   
C9       C      0.108850000000     0.131580000000     0.987360000000     0.392822   
C10      C      0.858720000000     0.110820000000     0.007150000000     0.396743   
C11      C      0.864140000000     0.974710000000     0.877430000000     0.400781   
C12      C      0.112720000000     0.010070000000     0.863770000000     0.393132   
C13      C      0.988720000000     0.365260000000     0.370520000000     0.396901   
C14      C      0.980490000000     0.616480000000     0.368260000000     0.396305   
C15      C      0.861130000000     0.477770000000     0.380990000000     0.395005   
C16      C      0.111100000000     0.494490000000     0.358150000000     0.393108   
C17      C      0.012480000000     0.619550000000     0.616440000000     0.395777   
C18      C      0.017800000000     0.368570000000     0.619860000000     0.398606   
C19      C      0.869730000000     0.614370000000     0.512930000000     0.399424   
C20      C      0.119190000000     0.620960000000     0.480870000000     0.390851   
C21      C      0.125220000000     0.369360000000     0.484880000000     0.393859   
C22      C      0.874620000000     0.363340000000     0.507320000000     0.391879   
C23      C      0.882200000000     0.493130000000     0.629760000000     0.39296    
C24      C      0.132800000000     0.496390000000     0.608180000000     0.397287   
C25      C      0.625880000000     0.996030000000     0.370380000000     0.39362    
C26      C      0.374500000000     0.005750000000     0.361420000000     0.397089   
C27      C      0.499060000000     0.875040000000     0.359830000000     0.39686    
C28      C      0.501230000000     0.126400000000     0.371910000000     0.392373   
C29      C      0.365290000000     0.987260000000     0.611470000000     0.396575   
C30      C      0.616330000000     0.995350000000     0.620190000000     0.395613   
C31      C      0.367480000000     0.870880000000     0.479870000000     0.395564   
C32      C      0.372090000000     0.122250000000     0.492240000000     0.397797   
C33      C      0.623660000000     0.117470000000     0.500920000000     0.396364   
C34      C      0.618920000000     0.867340000000     0.480110000000     0.395983   
C35      C      0.492000000000     0.862620000000     0.610450000000     0.390128   
C36      C      0.498230000000     0.113570000000     0.622060000000     0.397342   
C37      C      0.358230000000     0.382800000000     0.993580000000     0.396977   
C38      C      0.378880000000     0.633100000000     0.977850000000     0.395849   
C39      C      0.359570000000     0.514530000000     0.107400000000     0.396686   
C40      C      0.378020000000     0.499920000000     0.857680000000     0.39293    
C41      C      0.629000000000     0.612930000000     0.998470000000     0.391184   
C42      C      0.608780000000     0.362510000000     0.004360000000     0.392363   
C43      C      0.495540000000     0.629210000000     0.111180000000     0.391887   
C44      C      0.506690000000     0.616640000000     0.860790000000     0.396775   
C45      C      0.490860000000     0.366080000000     0.873130000000     0.392056   
C46      C      0.473010000000     0.378850000000     0.122620000000     0.396753   
C47      C      0.610120000000     0.503340000000     0.125740000000     0.39896    
C48      C      0.627910000000     0.479310000000     0.877060000000     0.397054   
C49      C      0.499720000000     0.153620000000     0.284880000000     0.0103358  
C50      C      0.453370000000     0.360440000000     0.209820000000     0.0214845  
C51      C      0.463360000000     0.291640000000     0.148340000000     0.188199   
C52      C      0.481830000000     0.330700000000     0.248560000000    -0.111234   
C53      C      0.461300000000     0.187330000000     0.261580000000    -0.0982154  
C54      C      0.495290000000     0.263360000000     0.184910000000    -0.152459   
C55      C      0.473750000000     0.240660000000     0.272810000000     0.0134033  
C56      C      0.480870000000     0.275830000000     0.237340000000     0.0477297  
C57      C      0.512290000000     0.215320000000     0.352800000000     0.00921166 
C58      C      0.476720000000     0.251360000000     0.327530000000    -0.0983035  
C59      C      0.491210000000     0.655330000000     0.198260000000     0.00976483 
C60      C      0.511290000000     0.856900000000     0.271420000000     0.0207142  
C61      C      0.500210000000     0.787520000000     0.333650000000     0.187052   
C62      C      0.480690000000     0.827540000000     0.234310000000    -0.112069   
C63      C      0.524840000000     0.688740000000     0.228510000000    -0.100198   
C64      C      0.469300000000     0.759920000000     0.295460000000    -0.151917   
C65      C      0.513900000000     0.741710000000     0.215180000000     0.0211179  
C66      C      0.487300000000     0.773110000000     0.244500000000     0.0459996  
C67      C      0.493760000000     0.718780000000     0.129400000000     0.00920443 
C68      C      0.526120000000     0.751720000000     0.161840000000    -0.100948   
C69      C      0.495870000000     0.837250000000     0.697690000000     0.00977701 
C70      C      0.500040000000     0.633670000000     0.771760000000     0.0205987  
C71      C      0.502720000000     0.703900000000     0.834330000000     0.187222   
C72      C      0.527430000000     0.666570000000     0.735070000000    -0.112156   
C73      C      0.467760000000     0.799550000000     0.728570000000    -0.0998054  
C74      C      0.530630000000     0.734740000000     0.796260000000    -0.151572   
C75      C      0.485410000000     0.748420000000     0.715270000000     0.0202975  
C76      C      0.514560000000     0.719850000000     0.745160000000     0.0454607  
C77      C      0.500950000000     0.773650000000     0.628910000000     0.00934388 
C78      C      0.474010000000     0.736760000000     0.662090000000    -0.101021   
C79      C      0.492390000000     0.338860000000     0.786140000000     0.0104481  
C80      C      0.512020000000     0.130310000000     0.710360000000     0.0218336  
C81      C      0.507220000000     0.200390000000     0.649070000000     0.188469   
C82      C      0.484300000000     0.161290000000     0.748470000000    -0.112286   
C83      C      0.524860000000     0.300100000000     0.761590000000    -0.0987142  
C84      C      0.477340000000     0.230220000000     0.686230000000    -0.152747   
C85      C      0.505530000000     0.249040000000     0.773300000000     0.0144421  
C86      C      0.491070000000     0.215800000000     0.738260000000     0.0470151  
C87      C      0.473110000000     0.278500000000     0.854100000000     0.00998773 
C88      C      0.503510000000     0.238690000000     0.828020000000    -0.0994585  
C89      C      0.786920000000     0.339720000000     0.518360000000     0.009572   
C90      C      0.712740000000     0.137680000000     0.497750000000     0.0207091  
C91      C      0.647820000000     0.205610000000     0.504010000000     0.185995   
C92      C      0.746230000000     0.167650000000     0.531680000000    -0.111673   
C93      C      0.754100000000     0.306400000000     0.487050000000    -0.0986093  
C94      C      0.683180000000     0.234030000000     0.537630000000    -0.151276   
C95      C      0.766450000000     0.253170000000     0.498330000000     0.0198468  
C96      C      0.735850000000     0.221830000000     0.523680000000     0.0449463  
C97      C      0.853910000000     0.274520000000     0.515490000000     0.00968295 
C98      C      0.819540000000     0.241610000000     0.485140000000    -0.100552   
C99      C      0.705710000000     0.844910000000     0.462240000000     0.0118157  
C100     C      0.782970000000     0.635490000000     0.532930000000     0.0233333  
C101     C      0.847930000000     0.700370000000     0.534990000000     0.188607   
C102     C      0.747920000000     0.668230000000     0.503500000000    -0.109537   
C103     C      0.739970000000     0.812970000000     0.493280000000    -0.096438   
C104     C      0.816160000000     0.735990000000     0.505130000000    -0.152703   
C105     C      0.726540000000     0.758260000000     0.493120000000     0.00962739 
C106     C      0.761380000000     0.722920000000     0.503980000000     0.0447341  
C107     C      0.640780000000     0.780680000000     0.460570000000     0.0111216  
C108     C      0.671720000000     0.745290000000     0.491480000000    -0.0964652  
C109     C      0.214030000000     0.349030000000     0.476430000000     0.0094181  
C110     C      0.283930000000     0.146640000000     0.494280000000     0.0212539  
C111     C      0.352210000000     0.211330000000     0.497140000000     0.18582    
C112     C      0.254470000000     0.180670000000     0.460490000000    -0.111964   
C113     C      0.247380000000     0.317820000000     0.509430000000    -0.0988115  
C114     C      0.320850000000     0.244090000000     0.463530000000    -0.151267   
C115     C      0.236560000000     0.263950000000     0.499690000000     0.0211412  
C116     C      0.266920000000     0.233500000000     0.473150000000     0.0454518  
C117     C      0.149420000000     0.281270000000     0.479760000000     0.00977138 
C118     C      0.183820000000     0.251410000000     0.512830000000    -0.100518   
C119     C      0.207180000000     0.645640000000     0.478250000000     0.00905554 
C120     C      0.278960000000     0.850700000000     0.468860000000     0.0212584  
C121     C      0.343890000000     0.782970000000     0.470370000000     0.18603    
C122     C      0.244020000000     0.817210000000     0.497790000000    -0.112358   
C123     C      0.236400000000     0.680940000000     0.445490000000    -0.0984696  
C124     C      0.307710000000     0.750670000000     0.499280000000    -0.151099   
C125     C      0.224040000000     0.733420000000     0.459740000000     0.0185186  
C126     C      0.255220000000     0.763930000000     0.485440000000     0.0464513  
C127     C      0.139000000000     0.710090000000     0.483370000000     0.00892785 
C128     C      0.170000000000     0.744040000000     0.450730000000    -0.0997167  
C129     C      0.772260000000     0.462360000000     0.364600000000     0.010904   
C130     C      0.695980000000     0.519990000000     0.151500000000     0.0232859  
C131     C      0.628200000000     0.521480000000     0.213380000000     0.187708   
C132     C      0.729030000000     0.488940000000     0.184370000000    -0.109975   
C133     C      0.736860000000     0.488390000000     0.329020000000    -0.0964298  
C134     C      0.660140000000     0.493170000000     0.250580000000    -0.151627   
C135     C      0.749900000000     0.483190000000     0.274580000000     0.0094798  
C136     C      0.715200000000     0.491960000000     0.238570000000     0.0432254  
C137     C      0.834150000000     0.449860000000     0.298810000000     0.0125786  
C138     C      0.804440000000     0.479060000000     0.261460000000    -0.0971229  
C139     C      0.126790000000     0.485140000000     0.268770000000     0.00877782 
C140     C      0.330930000000     0.521100000000     0.193660000000     0.0222449  
C141     C      0.270880000000     0.531290000000     0.123230000000     0.185239   
C142     C      0.293990000000     0.488120000000     0.220010000000    -0.112373   
C143     C      0.152750000000     0.518590000000     0.231280000000    -0.0977665  
C144     C      0.232090000000     0.501390000000     0.151830000000    -0.152644   
C145     C      0.207900000000     0.518640000000     0.240520000000     0.0153155  
C146     C      0.242080000000     0.503710000000     0.206620000000     0.0464699  
C147     C      0.197420000000     0.497210000000     0.328260000000     0.0106242  
C148     C      0.220880000000     0.533480000000     0.292500000000    -0.0988459  
C149     C      0.291590000000     0.501360000000     0.828050000000     0.0104348  
C150     C      0.222260000000     0.506560000000     0.623710000000     0.0209507  
C151     C      0.160820000000     0.502010000000     0.694490000000     0.187178   
C152     C      0.259970000000     0.478420000000     0.654950000000    -0.112119   
C153     C      0.266080000000     0.532950000000     0.789200000000    -0.100001   
C154     C      0.198720000000     0.472240000000     0.723490000000    -0.152169   
C155     C      0.280710000000     0.514670000000     0.738780000000     0.0199204  
C156     C      0.250010000000     0.488180000000     0.708790000000     0.0461742  
C157     C      0.362920000000     0.488930000000     0.768630000000     0.0103904  
C158     C      0.335560000000     0.519870000000     0.730260000000    -0.101637   
C159     C      0.795400000000     0.493940000000     0.658190000000     0.0106042  
C160     C      0.715950000000     0.459490000000     0.861610000000     0.0214338  
C161     C      0.656790000000     0.472170000000     0.790890000000     0.187988   
C162     C      0.756320000000     0.487920000000     0.834020000000    -0.111931   
C163     C      0.770230000000     0.458340000000     0.693320000000    -0.0985123  
C164     C      0.695710000000     0.503380000000     0.764870000000    -0.152299   
C165     C      0.782160000000     0.473040000000     0.745550000000     0.0143427  
C166     C      0.747060000000     0.486490000000     0.779120000000     0.0472145  
C167     C      0.865200000000     0.504240000000     0.718800000000     0.00864529 
C168     C      0.837080000000     0.472490000000     0.756370000000    -0.0990778  
C169     C      0.717520000000     0.627800000000     0.015450000000     0.010469   
C170     C      0.792850000000     0.831180000000     0.999540000000     0.0186377  
C171     C      0.864090000000     0.770540000000     0.991900000000     0.183944   
C172     C      0.766160000000     0.794440000000     0.032520000000    -0.110036   
C173     C      0.757900000000     0.656430000000     0.988240000000    -0.101287   
C174     C      0.834950000000     0.733470000000     0.023250000000    -0.150626   
C175     C      0.748730000000     0.711220000000     0.993570000000     0.0192881  
C176     C      0.780190000000     0.742790000000     0.017230000000     0.0450298  
C177     C      0.658550000000     0.699280000000     0.003230000000     0.0124634  
C178     C      0.698550000000     0.726220000000     0.974390000000    -0.101643   
C179     C      0.695190000000     0.333010000000     0.007830000000     0.0111303  
C180     C      0.770560000000     0.126060000000     0.025850000000     0.0205378  
C181     C      0.830520000000     0.197170000000     0.016440000000     0.190508   
C182     C      0.729980000000     0.156530000000     0.000860000000    -0.110966   
C183     C      0.720080000000     0.295670000000     0.041560000000    -0.0987798  
C184     C      0.790950000000     0.225840000000     0.988610000000    -0.154855   
C185     C      0.706770000000     0.244100000000     0.025170000000     0.0152839  
C186     C      0.740180000000     0.211170000000     0.006530000000     0.0485087  
C187     C      0.624550000000     0.272930000000     0.995830000000     0.00645557 
C188     C      0.651750000000     0.234710000000     0.027350000000    -0.0984658  
C189     C      0.218540000000     0.866300000000     0.967960000000     0.00915489 
C190     C      0.292360000000     0.662050000000     0.975430000000     0.0203188  
C191     C      0.363760000000     0.723030000000     0.982660000000     0.184732   
C192     C      0.265430000000     0.699190000000     0.943030000000    -0.112118   
C193     C      0.258510000000     0.835500000000     0.993440000000    -0.0995443  
C194     C      0.334010000000     0.759940000000     0.951730000000    -0.152532   
C195     C      0.248710000000     0.781220000000     0.984860000000     0.0189669  
C196     C      0.279460000000     0.750610000000     0.959000000000     0.0459049  
C197     C      0.158810000000     0.794720000000     0.975960000000     0.00944809 
C198     C      0.198440000000     0.765930000000     0.003500000000    -0.0984702  
C199     C      0.124240000000     0.220590000000     0.972760000000     0.00753769 
C200     C      0.328840000000     0.296520000000     0.998990000000     0.020187   
C201     C      0.268580000000     0.367930000000     0.004450000000     0.188085   
C202     C      0.292450000000     0.269060000000     0.966310000000    -0.111248   
C203     C      0.152000000000     0.259770000000     0.002650000000    -0.0964855  
C204     C      0.230770000000     0.337800000000     0.974830000000    -0.15306    
C205     C      0.207080000000     0.250370000000     0.000040000000     0.0175425  
C206     C      0.240450000000     0.283050000000     0.980790000000     0.0444321  
C207     C      0.195270000000     0.161240000000     0.984410000000     0.0096561  
C208     C      0.220650000000     0.199070000000     0.017210000000    -0.0990241  
C209     C      0.635500000000     0.011440000000     0.707770000000     0.0123892  
C210     C      0.842270000000     0.946000000000     0.794030000000     0.0240789  
C211     C      0.777610000000     0.951390000000     0.858670000000     0.188814   
C212     C      0.810700000000     0.972620000000     0.756270000000    -0.110802   
C213     C      0.666240000000     0.980940000000     0.743670000000    -0.097634   
C214     C      0.741370000000     0.975910000000     0.822870000000    -0.153264   
C215     C      0.721400000000     0.981250000000     0.732320000000     0.00912292 
C216     C      0.755840000000     0.973020000000     0.768630000000     0.043548   
C217     C      0.702510000000     0.011470000000     0.645640000000     0.0130598  
C218     C      0.735860000000     0.980090000000     0.678110000000    -0.0982918  
C219     C      0.199830000000     0.017560000000     0.836880000000     0.0115525  
C220     C      0.277250000000     0.971690000000     0.630970000000     0.0202704  
C221     C      0.339500000000     0.984130000000     0.698840000000     0.187231   
C222     C      0.239130000000     0.002520000000     0.659130000000    -0.109387   
C223     C      0.227290000000     0.983180000000     0.802080000000    -0.0987217  
C224     C      0.303170000000     0.018030000000     0.725270000000    -0.151358   
C225     C      0.215130000000     0.996070000000     0.749210000000     0.0129076  
C226     C      0.250390000000     0.003340000000     0.713780000000     0.0476942  
C227     C      0.130930000000     0.025740000000     0.775690000000     0.010898   
C228     C      0.160150000000     0.995160000000     0.738140000000    -0.10087    
C229     C      0.215680000000     0.002190000000     0.132110000000     0.0101879  
C230     C      0.286960000000     0.012540000000     0.335780000000     0.0231673  
C231     C      0.356280000000     0.020120000000     0.273250000000     0.187052   
C232     C      0.257550000000     0.982290000000     0.298590000000    -0.112791   
C233     C      0.249080000000     0.035260000000     0.163370000000    -0.099788   
C234     C      0.324920000000     0.990860000000     0.236470000000    -0.153502   
C235     C      0.239260000000     0.024870000000     0.217140000000     0.0211481  
C236     C      0.270730000000     0.999180000000     0.247240000000     0.0447856  
C237     C      0.152470000000     0.002600000000     0.201240000000     0.0113234  
C238     C      0.186430000000     0.036780000000     0.230290000000    -0.101352   
C239     C      0.652250000000     0.991840000000     0.283320000000     0.00763868 
C240     C      0.856510000000     0.993680000000     0.215720000000     0.0193123  
C241     C      0.787490000000     0.988200000000     0.151760000000     0.18613    
C242     C      0.824060000000     0.964460000000     0.251400000000    -0.111452   
C243     C      0.689700000000     0.021120000000     0.253130000000    -0.098923   
C244     C      0.757400000000     0.958420000000     0.188880000000    -0.151268   
C245     C      0.741150000000     0.005480000000     0.267900000000     0.0229565  
C246     C      0.770550000000     0.975280000000     0.240070000000     0.0440245  
C247     C      0.715100000000     0.988250000000     0.352920000000     0.00960581 
C248     C      0.751060000000     0.017700000000     0.321110000000    -0.101561   
C249     C      0.954030000000     0.208880000000     0.849270000000     0.0115843  
C250     C      0.035890000000     0.281820000000     0.642670000000     0.0226699  
C251     C      0.037850000000     0.347540000000     0.706450000000     0.187917   
C252     C      0.003680000000     0.248320000000     0.674340000000    -0.107981   
C253     C      0.987270000000     0.242030000000     0.818160000000    -0.0965326  
C254     C      0.005800000000     0.317030000000     0.741430000000    -0.150922   
C255     C      0.988830000000     0.228190000000     0.763710000000     0.00857611 
C256     C      0.002650000000     0.262240000000     0.728710000000     0.043785   
C257     C      0.951740000000     0.144120000000     0.785270000000     0.0118442  
C258     C      0.985290000000     0.173410000000     0.750960000000    -0.0969603  
C259     C      0.965230000000     0.849190000000     0.784600000000     0.0117886  
C260     C      0.037550000000     0.643180000000     0.700700000000     0.0225905  
C261     C      0.029160000000     0.707320000000     0.635690000000     0.187627   
C262     C      0.009260000000     0.674140000000     0.737990000000    -0.108577   
C263     C      0.993880000000     0.818320000000     0.747350000000    -0.0968619  
C264     C      0.000720000000     0.741480000000     0.670320000000    -0.151754   
C265     C      0.997270000000     0.763650000000     0.760420000000     0.00857966 
C266     C      0.005950000000     0.728710000000     0.724720000000     0.0459723  
C267     C      0.971970000000     0.784350000000     0.848400000000     0.0102758  
C268     C      0.001840000000     0.750730000000     0.814830000000    -0.0942117  
C269     C      0.021030000000     0.846000000000     0.207020000000     0.0107081  
C270     C      0.963490000000     0.638940000000     0.281400000000     0.0220497  
C271     C      0.974950000000     0.704940000000     0.345310000000     0.186889   
C272     C      0.996410000000     0.667200000000     0.245250000000    -0.111592   
C273     C      0.985440000000     0.811510000000     0.233540000000    -0.0972055  
C274     C      0.010480000000     0.732260000000     0.311330000000    -0.150789   
C275     C      0.997650000000     0.757900000000     0.222370000000     0.010414   
C276     C      0.998770000000     0.721830000000     0.257710000000     0.0469432  
C277     C      0.034040000000     0.783330000000     0.140860000000     0.00959193 
C278     C      0.000990000000     0.746260000000     0.167770000000    -0.0961955  
C279     C      0.984360000000     0.140870000000     0.210290000000     0.00812532 
C280     C      0.985590000000     0.343140000000     0.282350000000     0.0200567  
C281     C      0.993650000000     0.276690000000     0.348570000000     0.184953   
C282     C      0.952790000000     0.308120000000     0.252940000000    -0.111829   
C283     C      0.014520000000     0.176460000000     0.241840000000    -0.0972339  
C284     C      0.961330000000     0.243080000000     0.316670000000    -0.150727   
C285     C      0.997400000000     0.228480000000     0.231420000000     0.0193362  
C286     C      0.969250000000     0.255940000000     0.263160000000     0.0455518  
C287     C      0.976460000000     0.207840000000     0.145350000000     0.00815314 
C288     C      0.006650000000     0.242160000000     0.178300000000    -0.0981976  
H1       H      0.933520000000     0.919170000000     0.068920000000     0.208281   
H2       H      0.062110000000     0.071660000000     0.062330000000     0.207427   
H3       H      0.913130000000     0.060340000000     0.929500000000     0.207502   
H4       H      0.066110000000     0.931820000000     0.920000000000     0.207984   
H5       H      0.917680000000     0.560130000000     0.429660000000     0.205832   
H6       H      0.062650000000     0.422630000000     0.418870000000     0.209219   
H7       H      0.934700000000     0.420570000000     0.571660000000     0.207686   
H8       H      0.071880000000     0.564440000000     0.556440000000     0.211492   
H9       H      0.426460000000     0.928890000000     0.414720000000     0.207739   
H10      H      0.569840000000     0.067040000000     0.426250000000     0.210164   
H11      H      0.563410000000     0.919180000000     0.560080000000     0.206785   
H12      H      0.423760000000     0.062700000000     0.562240000000     0.206587   
H13      H      0.424660000000     0.576970000000     0.053600000000     0.209605   
H14      H      0.422720000000     0.429450000000     0.920690000000     0.209033   
H15      H      0.553720000000     0.425520000000     0.071260000000     0.206532   
H16      H      0.574880000000     0.559100000000     0.923800000000     0.206592   
H17      H      0.456680000000     0.178170000000     0.222410000000     0.051212   
H18      H      0.413290000000     0.354370000000     0.215820000000     0.0359573  
H19      H      0.550500000000     0.225160000000     0.341730000000     0.0278259  
H20      H      0.490530000000     0.288690000000     0.336230000000     0.042415   
H21      H      0.464110000000     0.339760000000     0.284040000000     0.0459961  
H22      H      0.494840000000     0.223880000000     0.175370000000     0.0652177  
H23      H      0.489520000000     0.114860000000     0.276640000000     0.035552   
H24      H      0.460480000000     0.400200000000     0.216340000000     0.0325918  
H25      H      0.439390000000     0.247540000000     0.343880000000     0.0513684  
H26      H      0.534240000000     0.274950000000     0.179670000000     0.0602248  
H27      H      0.509800000000     0.220950000000     0.393100000000     0.0354247  
H28      H      0.424900000000     0.179000000000     0.278410000000     0.056637   
H29      H      0.520740000000     0.343380000000     0.249820000000     0.0505792  
H30      H      0.477830000000     0.282690000000     0.111120000000    -0.00162835 
H31      H      0.536120000000     0.160970000000     0.267600000000     0.0283902  
H32      H      0.396750000000     0.288990000000     0.123200000000     0.150636   
H33      H      0.522340000000     0.679880000000     0.267980000000     0.0545677  
H34      H      0.551010000000     0.850860000000     0.263390000000     0.03537    
H35      H      0.455010000000     0.731820000000     0.132080000000     0.0291324  
H36      H      0.522190000000     0.790220000000     0.149730000000     0.0435844  
H37      H      0.490410000000     0.839810000000     0.197020000000     0.0458742  
H38      H      0.467880000000     0.720130000000     0.303750000000     0.0654791  
H39      H      0.500830000000     0.616520000000     0.206990000000     0.0358042  
H40      H      0.503690000000     0.896660000000     0.265450000000     0.0328414  
H41      H      0.565410000000     0.742200000000     0.155190000000     0.0529986  
H42      H      0.430390000000     0.772310000000     0.299080000000     0.0604338  
H43      H      0.505540000000     0.723850000000     0.090680000000     0.0360085  
H44      H      0.563730000000     0.680360000000     0.218650000000     0.057372   
H45      H      0.441180000000     0.837290000000     0.239110000000     0.0515634  
H46      H      0.483060000000     0.779700000000     0.370000000000    -0.00218546 
H47      H      0.452390000000     0.661380000000     0.209880000000     0.0299488  
H48      H      0.564780000000     0.781760000000     0.363240000000     0.150408   
H49      H      0.469890000000     0.808950000000     0.767930000000     0.0530992  
H50      H      0.460080000000     0.634230000000     0.762710000000     0.035602   
H51      H      0.541100000000     0.765530000000     0.630200000000     0.0283722  
H52      H      0.483200000000     0.699180000000     0.649940000000     0.0429041  
H53      H      0.519620000000     0.653350000000     0.697660000000     0.0452013  
H54      H      0.527600000000     0.774440000000     0.804580000000     0.0646016  
H55      H      0.480560000000     0.874280000000     0.706070000000     0.0352672  
H56      H      0.513130000000     0.595270000000     0.766310000000     0.0324945  
H57      H      0.433670000000     0.740640000000     0.656030000000     0.0524359  
H58      H      0.570650000000     0.726730000000     0.800120000000     0.059574   
H59      H      0.488550000000     0.767250000000     0.590560000000     0.0356109  
H60      H      0.427910000000     0.802530000000     0.719490000000     0.0563476  
H61      H      0.567740000000     0.661400000000     0.740270000000     0.0507165  
H62      H      0.519340000000     0.712890000000     0.870670000000    -0.00226204 
H63      H      0.535180000000     0.837280000000     0.709230000000     0.029003   
H64      H      0.438340000000     0.704790000000     0.865080000000     0.151709   
H65      H      0.529220000000     0.308400000000     0.722160000000     0.0517611  
H66      H      0.552210000000     0.133480000000     0.717780000000     0.0349176  
H67      H      0.433690000000     0.273260000000     0.844190000000     0.026845   
H68      H      0.486020000000     0.203220000000     0.837650000000     0.0416103  
H69      H      0.498900000000     0.149490000000     0.784480000000     0.0454342  
H70      H      0.480170000000     0.269900000000     0.677770000000     0.0655452  
H71      H      0.508370000000     0.375720000000     0.778350000000     0.0353012  
H72      H      0.501890000000     0.091100000000     0.716190000000     0.0329109  
H73      H      0.541600000000     0.238430000000     0.843000000000     0.0511569  
H74      H      0.437690000000     0.221310000000     0.680900000000     0.06034    
H75      H      0.476220000000     0.272340000000     0.894290000000     0.0349802  
H76      H      0.562640000000     0.303260000000     0.777070000000     0.0561635  
H77      H      0.444380000000     0.152230000000     0.747240000000     0.0504564  
H78      H      0.492560000000     0.210080000000     0.612100000000    -0.00226136 
H79      H      0.455110000000     0.337580000000     0.769250000000     0.0278692  
H80      H      0.573350000000     0.200510000000     0.622470000000     0.149954   
H81      H      0.715110000000     0.316870000000     0.491550000000     0.0509773  
H82      H      0.724320000000     0.144080000000     0.459120000000     0.0330782  
H83      H      0.851470000000     0.263080000000     0.554610000000     0.0270051  
H84      H      0.830890000000     0.202910000000     0.489480000000     0.0423403  
H85      H      0.784800000000     0.156030000000     0.526700000000     0.0443133  
H86      H      0.673810000000     0.273570000000     0.538270000000     0.0655844  
H87      H      0.778570000000     0.378560000000     0.508590000000     0.0362013  
H88      H      0.718880000000     0.098040000000     0.505800000000     0.0327105  
H89      H      0.825310000000     0.250010000000     0.445610000000     0.0524669  
H90      H      0.676740000000     0.221660000000     0.576030000000     0.0615768  
H91      H      0.892350000000     0.267730000000     0.503220000000     0.0348754  
H92      H      0.762290000000     0.313690000000     0.447720000000     0.0557167  
H93      H      0.737320000000     0.157980000000     0.570340000000     0.051776   
H94      H      0.610020000000     0.212180000000     0.518620000000    -0.00108553 
H95      H      0.776960000000     0.334630000000     0.557630000000     0.0285774  
H96      H      0.622170000000     0.211760000000     0.437990000000     0.146959   
H97      H      0.777180000000     0.819540000000     0.477830000000     0.042458   
H98      H      0.774840000000     0.640430000000     0.572640000000     0.0367928  
H99      H      0.648250000000     0.773080000000     0.421130000000     0.0295823  
H100     H      0.665350000000     0.708490000000     0.475000000000     0.0428058  
H101     H      0.711050000000     0.661740000000     0.519840000000     0.0459273  
H102     H      0.822680000000     0.772770000000     0.521640000000     0.0682951  
H103     H      0.714070000000     0.884240000000     0.469830000000     0.0349439  
H104     H      0.774850000000     0.596430000000     0.523850000000     0.0322045  
H105     H      0.657290000000     0.744970000000     0.529650000000     0.0503413  
H106     H      0.829900000000     0.736790000000     0.466700000000     0.0605657  
H107     H      0.601200000000     0.772600000000     0.467220000000     0.034759   
H108     H      0.739390000000     0.826410000000     0.531790000000     0.0522534  
H109     H      0.747310000000     0.655410000000     0.464770000000     0.0518796  
H110     H      0.886990000000     0.708950000000     0.525720000000    -0.000982148
H111     H      0.714260000000     0.838220000000     0.422840000000     0.0289077  
H112     H      0.867140000000     0.691530000000     0.602860000000     0.148314   
H113     H      0.286000000000     0.329370000000     0.504680000000     0.048232   
H114     H      0.270340000000     0.151310000000     0.532510000000     0.0326251  
H115     H      0.153880000000     0.268310000000     0.441290000000     0.0282584  
H116     H      0.174320000000     0.211910000000     0.511550000000     0.0435406  
H117     H      0.214920000000     0.171280000000     0.461400000000     0.0459157  
H118     H      0.332340000000     0.282840000000     0.467240000000     0.0642422  
H119     H      0.220550000000     0.388420000000     0.485350000000     0.0356552  
H120     H      0.276270000000     0.108000000000     0.483290000000     0.0330405  
H121     H      0.176950000000     0.262380000000     0.551560000000     0.0540362  
H122     H      0.329380000000     0.234510000000     0.424750000000     0.0607197  
H123     H      0.110860000000     0.273340000000     0.490890000000     0.0354227  
H124     H      0.238540000000     0.326280000000     0.548380000000     0.0553297  
H125     H      0.265850000000     0.173310000000     0.421970000000     0.0543527  
H126     H      0.391230000000     0.217290000000     0.485870000000    -2.80319e-05
H127     H      0.225210000000     0.343320000000     0.437570000000     0.028548   
H128     H      0.372830000000     0.210610000000     0.565140000000     0.14572    
H129     H      0.275930000000     0.671500000000     0.445890000000     0.049912   
H130     H      0.269510000000     0.848120000000     0.429230000000     0.032912   
H131     H      0.144040000000     0.721360000000     0.522290000000     0.0290357  
H132     H      0.158230000000     0.782450000000     0.456300000000     0.0429251  
H133     H      0.205890000000     0.829340000000     0.491190000000     0.0459832  
H134     H      0.317590000000     0.711450000000     0.495400000000     0.0644401  
H135     H      0.214440000000     0.607470000000     0.465420000000     0.0356321  
H136     H      0.271980000000     0.889300000000     0.480470000000     0.0325836  
H137     H      0.161220000000     0.735900000000     0.411690000000     0.051486   
H138     H      0.312780000000     0.758470000000     0.539040000000     0.0613154  
H139     H      0.099600000000     0.716080000000     0.474020000000     0.0364384  
H140     H      0.224880000000     0.674810000000     0.406790000000     0.0540974  
H141     H      0.250480000000     0.823090000000     0.537660000000     0.0540496  
H142     H      0.381280000000     0.774670000000     0.485130000000    -0.000442391
H143     H      0.221350000000     0.648550000000     0.516440000000     0.0291789  
H144     H      0.371350000000     0.785010000000     0.404830000000     0.145791   
H145     H      0.700080000000     0.472530000000     0.337030000000     0.0424621  
H146     H      0.704460000000     0.559540000000     0.158150000000     0.0367854  
H147     H      0.823320000000     0.410410000000     0.295980000000     0.0276312  
H148     H      0.810060000000     0.459240000000     0.226310000000     0.0413376  
H149     H      0.766730000000     0.503020000000     0.177340000000     0.0452001  
H150     H      0.652860000000     0.510620000000     0.286650000000     0.068598   
H151     H      0.766010000000     0.477240000000     0.402080000000     0.0345833  
H152     H      0.705760000000     0.512160000000     0.112680000000     0.0326432  
H153     H      0.820150000000     0.516710000000     0.258100000000     0.0513338  
H154     H      0.646910000000     0.454470000000     0.252490000000     0.0589283  
H155     H      0.873760000000     0.452150000000     0.288750000000     0.0353026  
H156     H      0.735940000000     0.528290000000     0.338110000000     0.0519327  
H157     H      0.727190000000     0.449830000000     0.172480000000     0.0515446  
H158     H      0.589360000000     0.509990000000     0.220210000000    -0.00196662 
H159     H      0.762680000000     0.422510000000     0.365540000000     0.0286745  
H160     H      0.605460000000     0.588440000000     0.203940000000     0.149917   
H161     H      0.141960000000     0.504980000000     0.194610000000     0.0439279  
H162     H      0.326670000000     0.559450000000     0.207370000000     0.0349251  
H163     H      0.213910000000     0.460160000000     0.322430000000     0.0281719  
H164     H      0.260690000000     0.537630000000     0.299960000000     0.0439873  
H165     H      0.302110000000     0.486950000000     0.259720000000     0.0461752  
H166     H      0.195720000000     0.516180000000     0.141000000000     0.0682217  
H167     H      0.086370000000     0.489970000000     0.264430000000     0.0359159  
H168     H      0.368610000000     0.508530000000     0.203480000000     0.0331689  
H169     H      0.205080000000     0.570610000000     0.299560000000     0.0545965  
H170     H      0.233530000000     0.462260000000     0.139880000000     0.0624987  
H171     H      0.206770000000     0.509120000000     0.366140000000     0.0354276  
H172     H      0.138520000000     0.556800000000     0.234990000000     0.0527245  
H173     H      0.299500000000     0.449650000000     0.207120000000     0.055482   
H174     H      0.265510000000     0.521980000000     0.083760000000     9.40673e-05
H175     H      0.135290000000     0.446190000000     0.259350000000     0.0292957  
H176     H      0.281150000000     0.599380000000     0.104720000000     0.147427   
H177     H      0.225920000000     0.534860000000     0.795750000000     0.0546927  
H178     H      0.230860000000     0.546560000000     0.625800000000     0.0337085  
H179     H      0.356550000000     0.449290000000     0.760470000000     0.0279949  
H180     H      0.348710000000     0.508610000000     0.693680000000     0.0429119  
H181     H      0.296960000000     0.488940000000     0.641960000000     0.0455967  
H182     H      0.191030000000     0.473730000000     0.763330000000     0.0648063  
H183     H      0.282420000000     0.516730000000     0.864720000000     0.0357898  
H184     H      0.227290000000     0.495170000000     0.584860000000     0.0326985  
H185     H      0.346200000000     0.559170000000     0.734700000000     0.0531573  
H186     H      0.194190000000     0.432700000000     0.713750000000     0.0611493  
H187     H      0.403010000000     0.495890000000     0.764100000000     0.0359861  
H188     H      0.279110000000     0.571560000000     0.793400000000     0.0565642  
H189     H      0.256050000000     0.438300000000     0.647740000000     0.0522036  
H190     H      0.124090000000     0.486380000000     0.704130000000    -0.000564102
H191     H      0.276330000000     0.463380000000     0.826380000000     0.0277995  
H192     H      0.132740000000     0.567520000000     0.696050000000     0.147832   
H193     H      0.730570000000     0.455150000000     0.684700000000     0.0513829  
H194     H      0.721730000000     0.419450000000     0.855150000000     0.0351486  
H195     H      0.858100000000     0.543650000000     0.727400000000     0.0301707  
H196     H      0.846680000000     0.487320000000     0.792950000000     0.0418959  
H197     H      0.791620000000     0.470670000000     0.844880000000     0.0454262  
H198     H      0.688170000000     0.504630000000     0.725050000000     0.064246   
H199     H      0.786160000000     0.482570000000     0.620120000000     0.0355287  
H200     H      0.721100000000     0.465880000000     0.901550000000     0.0325455  
H201     H      0.850650000000     0.433920000000     0.754480000000     0.0490228  
H202     H      0.691440000000     0.542160000000     0.777310000000     0.0601927  
H203     H      0.905290000000     0.497810000000     0.723970000000     0.0351777  
H204     H      0.785350000000     0.420830000000     0.686800000000     0.0543677  
H205     H      0.756740000000     0.526890000000     0.846500000000     0.0511242  
H206     H      0.620330000000     0.488300000000     0.781120000000    -0.0022728  
H207     H      0.780060000000     0.531490000000     0.663950000000     0.0297806  
H208     H      0.629100000000     0.406740000000     0.785460000000     0.149182   
H209     H      0.793480000000     0.643500000000     0.002950000000     0.0453516  
H210     H      0.778750000000     0.827190000000     0.961430000000     0.0350072  
H211     H      0.659040000000     0.712550000000     0.041840000000     0.0295165  
H212     H      0.691480000000     0.766320000000     0.974030000000     0.0455113  
H213     H      0.726090000000     0.801770000000     0.033390000000     0.0457737  
H214     H      0.847430000000     0.696160000000     0.013120000000     0.0655122  
H215     H      0.722670000000     0.588020000000     0.007360000000     0.0351497  
H216     H      0.783350000000     0.868890000000     0.012240000000     0.0337858  
H217     H      0.695900000000     0.714820000000     0.935280000000     0.0544302  
H218     H      0.844960000000     0.738650000000     0.062480000000     0.0582008  
H219     H      0.622260000000     0.709300000000     0.987220000000     0.0341409  
H220     H      0.757000000000     0.646530000000     0.948660000000     0.0536079  
H221     H      0.778650000000     0.800430000000     0.070940000000     0.0513533  
H222     H      0.903540000000     0.766000000000     0.002320000000    -0.000526842
H223     H      0.723150000000     0.632670000000     0.055600000000     0.0299062  
H224     H      0.883370000000     0.777710000000     0.923910000000     0.149727   
H225     H      0.760030000000     0.303060000000     0.044530000000     0.0513522  
H226     H      0.765640000000     0.129070000000     0.066270000000     0.0361107  
H227     H      0.631500000000     0.264340000000     0.956520000000     0.0302793  
H228     H      0.640270000000     0.198130000000     0.013800000000     0.0422684  
H229     H      0.694970000000     0.144470000000     0.017730000000     0.0466306  
H230     H      0.799000000000     0.265720000000     0.989740000000     0.0641204  
H231     H      0.704150000000     0.370520000000     0.021520000000     0.0342764  
H232     H      0.764800000000     0.086760000000     0.016040000000     0.0326336  
H233     H      0.639150000000     0.237820000000     0.066040000000     0.0499718  
H234     H      0.793560000000     0.215900000000     0.949090000000     0.0600151  
H235     H      0.584380000000     0.268280000000     0.002190000000     0.0367545  
H236     H      0.705680000000     0.301180000000     0.079380000000     0.053406   
H237     H      0.728560000000     0.147260000000     0.961160000000     0.0496242  
H238     H      0.866440000000     0.207330000000     0.999390000000    -0.00350067 
H239     H      0.711020000000     0.329460000000     0.970350000000     0.0288476  
H240     H      0.861250000000     0.198690000000     0.080520000000     0.15057    
H241     H      0.294400000000     0.848910000000     0.980010000000     0.0459916  
H242     H      0.278030000000     0.664980000000     0.013560000000     0.034107   
H243     H      0.159200000000     0.783380000000     0.936740000000     0.0286094  
H244     H      0.190800000000     0.725980000000     0.002020000000     0.0450891  
H245     H      0.225370000000     0.691820000000     0.942180000000     0.0463083  
H246     H      0.346750000000     0.797410000000     0.960840000000     0.0669875  
H247     H      0.223930000000     0.905410000000     0.978720000000     0.0355404  
H248     H      0.283320000000     0.624530000000     0.961820000000     0.0336679  
H249     H      0.195950000000     0.775510000000     0.043110000000     0.0552938  
H250     H      0.343190000000     0.754370000000     0.912340000000     0.0628592  
H251     H      0.122400000000     0.784250000000     0.991440000000     0.0354499  
H252     H      0.257490000000     0.842980000000     0.033540000000     0.0558992  
H253     H      0.277720000000     0.693680000000     0.904470000000     0.0545615  
H254     H      0.402930000000     0.727310000000     0.971050000000    -0.00115081 
H255     H      0.224410000000     0.864080000000     0.927620000000     0.0288741  
H256     H      0.386100000000     0.717940000000     0.050010000000     0.146899   
H257     H      0.140210000000     0.295870000000     0.988220000000     0.0433505  
H258     H      0.324120000000     0.283880000000     0.037530000000     0.0365787  
H259     H      0.209920000000     0.164790000000     0.946450000000     0.0295308  
H260     H      0.260560000000     0.191510000000     0.019810000000     0.0449696  
H261     H      0.300430000000     0.229160000000     0.966240000000     0.0452179  
H262     H      0.193860000000     0.349980000000     0.986800000000     0.0668904  
H263     H      0.084140000000     0.225390000000     0.979390000000     0.0360991  
H264     H      0.366700000000     0.286400000000     0.987180000000     0.0321544  
H265     H      0.206720000000     0.194240000000     0.055300000000     0.0539364  
H266     H      0.234130000000     0.347430000000     0.935310000000     0.0594989  
H267     H      0.205020000000     0.123920000000     0.998050000000     0.034656   
H268     H      0.140000000000     0.257850000000     0.041610000000     0.0527819  
H269     H      0.298600000000     0.280870000000     0.927700000000     0.0517709  
H270     H      0.263880000000     0.406980000000     0.992730000000    -0.0017919  
H271     H      0.130720000000     0.227940000000     0.933120000000     0.0305428  
H272     H      0.275830000000     0.390640000000     0.071450000000     0.149238   
H273     H      0.657980000000     0.996730000000     0.780250000000     0.0417194  
H274     H      0.835910000000     0.905690000000     0.790170000000     0.0371162  
H275     H      0.710690000000     0.050970000000     0.652900000000     0.0277742  
H276     H      0.773380000000     0.994880000000     0.671750000000     0.0408889  
H277     H      0.817970000000     0.953060000000     0.721270000000     0.0457014  
H278     H      0.705290000000     0.957930000000     0.829640000000     0.0689784  
H279     H      0.595930000000     0.003450000000     0.714570000000     0.0356289  
H280     H      0.881660000000     0.952600000000     0.785080000000     0.0326651  
H281     H      0.734810000000     0.941280000000     0.665180000000     0.0512068  
H282     H      0.737850000000     0.015470000000     0.832770000000     0.059737   
H283     H      0.712120000000     0.004090000000     0.606680000000     0.0346345  
H284     H      0.653100000000     0.942180000000     0.743050000000     0.0520347  
H285     H      0.823660000000     0.011300000000     0.752790000000     0.0519001  
H286     H      0.769090000000     0.966380000000     0.895800000000    -0.00244445 
H287     H      0.641420000000     0.051130000000     0.716090000000     0.0286332  
H288     H      0.787980000000     0.886950000000     0.887310000000     0.151704   
H289     H      0.266750000000     0.982950000000     0.811670000000     0.0488688  
H290     H      0.270250000000     0.932140000000     0.639030000000     0.0361101  
H291     H      0.137710000000     0.065400000000     0.767950000000     0.0288422  
H292     H      0.150880000000     0.011090000000     0.701910000000     0.0429086  
H293     H      0.202990000000     0.985770000000     0.650420000000     0.0447887  
H294     H      0.312830000000     0.020070000000     0.764530000000     0.0642158  
H295     H      0.209070000000     0.006850000000     0.875150000000     0.0350144  
H296     H      0.270780000000     0.976900000000     0.591050000000     0.0329536  
H297     H      0.147040000000     0.956380000000     0.738870000000     0.0512771  
H298     H      0.308760000000     0.056140000000     0.711370000000     0.059935   
H299     H      0.091010000000     0.019040000000     0.769660000000     0.0351107  
H300     H      0.214530000000     0.944870000000     0.808980000000     0.0553942  
H301     H      0.239250000000     0.040890000000     0.644940000000     0.0507121  
H302     H      0.377060000000     0.998750000000     0.706660000000    -0.00263311 
H303     H      0.213260000000     0.055830000000     0.831050000000     0.0291166  
H304     H      0.364190000000     0.917600000000     0.705380000000     0.149336   
H305     H      0.287480000000     0.030650000000     0.151150000000     0.0476578  
H306     H      0.274400000000     0.051490000000     0.334060000000     0.0349877  
H307     H      0.158080000000     0.964140000000     0.214130000000     0.028957   
H308     H      0.177670000000     0.035670000000     0.269840000000     0.0441443  
H309     H      0.217940000000     0.983010000000     0.307700000000     0.0451785  
H310     H      0.337110000000     0.000050000000     0.199010000000     0.0665505  
H311     H      0.220680000000     0.012730000000     0.093020000000     0.0355959  
H312     H      0.278270000000     0.998450000000     0.373070000000     0.031055   
H313     H      0.178420000000     0.075400000000     0.219240000000     0.0528862  
H314     H      0.333150000000     0.950990000000     0.241030000000     0.0593114  
H315     H      0.113790000000     0.012940000000     0.209780000000     0.0347929  
H316     H      0.239870000000     0.074380000000     0.155510000000     0.0539979  
H317     H      0.268300000000     0.942960000000     0.302570000000     0.0521193  
H318     H      0.395200000000     0.008770000000     0.266760000000    -0.00112423 
H319     H      0.228390000000     0.963440000000     0.135950000000     0.0298066  
H320     H      0.378360000000     0.087430000000     0.281450000000     0.14903    
H321     H      0.681510000000     0.018350000000     0.213520000000     0.0535146  
H322     H      0.853930000000     0.033460000000     0.225100000000     0.0361134  
H323     H      0.724780000000     0.948510000000     0.350470000000     0.0299915  
H324     H      0.788970000000     0.011120000000     0.333990000000     0.0431783  
H325     H      0.835930000000     0.972060000000     0.289310000000     0.0447115  
H326     H      0.717690000000     0.959370000000     0.179990000000     0.0634896  
H327     H      0.614850000000     0.005940000000     0.274450000000     0.0365405  
H328     H      0.895380000000     0.982280000000     0.221730000000     0.0320629  
H329     H      0.744340000000     0.057650000000     0.327180000000     0.0522148  
H330     H      0.767640000000     0.918930000000     0.185020000000     0.0589126  
H331     H      0.720740000000     0.999700000000     0.391670000000     0.0348395  
H332     H      0.685000000000     0.060880000000     0.261790000000     0.0549633  
H333     H      0.831080000000     0.924500000000     0.245770000000     0.0510228  
H334     H      0.779820000000     0.971560000000     0.115150000000    -0.00180934 
H335     H      0.653640000000     0.952590000000     0.271700000000     0.030822   
H336     H      0.784950000000     0.052950000000     0.122100000000     0.151839   
H337     H      0.972710000000     0.279800000000     0.823690000000     0.0414279  
H338     H      0.075170000000     0.272400000000     0.649630000000     0.0364638  
H339     H      0.912840000000     0.153700000000     0.776570000000     0.0252901  
H340     H      0.969760000000     0.167560000000     0.713770000000     0.0406137  
H341     H      0.018780000000     0.210770000000     0.668780000000     0.0450536  
H342     H      0.021600000000     0.322950000000     0.778530000000     0.0678338  
H343     H      0.960920000000     0.216920000000     0.888650000000     0.0343824  
H344     H      0.028470000000     0.273430000000     0.603460000000     0.0323537  
H345     H      0.022940000000     0.157340000000     0.752060000000     0.0522898  
H346     H      0.967780000000     0.332280000000     0.741220000000     0.0585183  
H347     H      0.956410000000     0.104240000000     0.777400000000     0.0336171  
H348     H      0.025400000000     0.240500000000     0.832950000000     0.0537566  
H349     H      0.965320000000     0.249210000000     0.660060000000     0.0497194  
H350     H      0.029360000000     0.386940000000     0.714150000000    -0.00105766 
H351     H      0.915000000000     0.218750000000     0.841510000000     0.0255183  
H352     H      0.106760000000     0.364710000000     0.699550000000     0.147231   
H353     H      0.974380000000     0.824260000000     0.712100000000     0.0426728  
H354     H      0.077570000000     0.650940000000     0.705040000000     0.0359112  
H355     H      0.932280000000     0.774990000000     0.844060000000     0.0298482  
H356     H      0.987980000000     0.713160000000     0.822810000000     0.0420164  
H357     H      0.029050000000     0.668330000000     0.773120000000     0.0468969  
H358     H      0.014420000000     0.779070000000     0.662080000000     0.0687206  
H359     H      0.971220000000     0.888740000000     0.776000000000     0.0345436  
H360     H      0.032000000000     0.603690000000     0.709840000000     0.032164   
H361     H      0.041340000000     0.752620000000     0.825420000000     0.0509304  
H362     H      0.960920000000     0.740060000000     0.660740000000     0.0618464  
H363     H      0.982200000000     0.776210000000     0.887040000000     0.0349611  
H364     H      0.031870000000     0.833230000000     0.743970000000     0.0527242  
H365     H      0.971270000000     0.659320000000     0.741690000000     0.0525971  
H366     H      0.014910000000     0.714790000000     0.598060000000    -0.000367422
H367     H      0.925210000000     0.841690000000     0.779680000000     0.0292635  
H368     H      0.095150000000     0.702330000000     0.609140000000     0.145916   
H369     H      0.984660000000     0.821670000000     0.272660000000     0.0468247  
H370     H      0.924460000000     0.648800000000     0.273710000000     0.0340827  
H371     H      0.072880000000     0.776220000000     0.151840000000     0.0296144  
H372     H      0.017540000000     0.709680000000     0.160420000000     0.0420027  
H373     H      0.980330000000     0.660170000000     0.208530000000     0.0455736  
H374     H      0.011310000000     0.771400000000     0.322020000000     0.0644911  
H375     H      0.010040000000     0.884630000000     0.214830000000     0.0346516  
H376     H      0.967400000000     0.598920000000     0.273890000000     0.0320321  
H377     H      0.963380000000     0.746990000000     0.151660000000     0.0489935  
H378     H      0.048390000000     0.718520000000     0.318580000000     0.0620795  
H379     H      0.031490000000     0.776180000000     0.100810000000     0.0360656  
H380     H      0.947570000000     0.818860000000     0.219810000000     0.0537548  
H381     H      0.034280000000     0.651650000000     0.246050000000     0.053084   
H382     H      0.987730000000     0.712000000000     0.383520000000    -0.001101   
H383     H      0.058630000000     0.840390000000     0.222290000000     0.0287915  
H384     H      0.907260000000     0.710810000000     0.366760000000     0.14455    
H385     H      0.013230000000     0.164920000000     0.280610000000     0.0495421  
H386     H      0.023640000000     0.341590000000     0.267280000000     0.034151   
H387     H      0.936670000000     0.216070000000     0.150650000000     0.0303761  
H388     H      0.999420000000     0.280890000000     0.168530000000     0.0428585  
H389     H      0.951950000000     0.318960000000     0.213940000000     0.0455006  
H390     H      0.967150000000     0.204100000000     0.326470000000     0.0636079  
H391     H      0.998850000000     0.103110000000     0.216470000000     0.0354633  
H392     H      0.971670000000     0.381180000000     0.276490000000     0.0328008  
H393     H      0.046380000000     0.236560000000     0.169970000000     0.0521464  
H394     H      0.922080000000     0.250120000000     0.326150000000     0.0596106  
H395     H      0.985630000000     0.216440000000     0.106540000000     0.0352139  
H396     H      0.053960000000     0.173080000000     0.231260000000     0.0541256  
H397     H      0.914110000000     0.312720000000     0.265650000000     0.0522591  
H398     H      0.982740000000     0.269490000000     0.387350000000    -0.00111048 
H399     H      0.945510000000     0.141330000000     0.223280000000     0.0310837  
H400     H      0.061850000000     0.279440000000     0.369310000000     0.146767   
N1       N      0.465620000000     0.344960000000     0.159260000000    -0.193514   
N2       N      0.502900000000     0.163740000000     0.338040000000    -0.173476   
N3       N      0.501250000000     0.841090000000     0.322600000000    -0.192915   
N4       N      0.495690000000     0.666490000000     0.145160000000    -0.173228   
N5       N      0.506450000000     0.650430000000     0.823250000000    -0.192118   
N6       N      0.493150000000     0.825420000000     0.644600000000    -0.172798   
N7       N      0.502630000000     0.147060000000     0.659520000000    -0.193491   
N8       N      0.488050000000     0.328770000000     0.839290000000    -0.173389   
N9       N      0.660270000000     0.152300000000     0.503060000000    -0.19243    
N10      N      0.839640000000     0.327080000000     0.511650000000    -0.173058   
N11      N      0.834590000000     0.649010000000     0.523710000000    -0.19417    
N12      N      0.653920000000     0.832060000000     0.471200000000    -0.173486   
N13      N      0.337220000000     0.158820000000     0.492790000000    -0.19268    
N14      N      0.161650000000     0.334480000000     0.482040000000    -0.173447   
N15      N      0.331150000000     0.835930000000     0.475500000000    -0.192271   
N16      N      0.153850000000     0.657720000000     0.478200000000    -0.17263    
N17      N      0.643720000000     0.511050000000     0.162590000000    -0.193562   
N18      N      0.823770000000     0.467290000000     0.348760000000    -0.173142   
N19      N      0.321620000000     0.520150000000     0.140200000000    -0.19272    
N20      N      0.143670000000     0.494450000000     0.319640000000    -0.172935   
N21      N      0.171020000000     0.498890000000     0.641030000000    -0.192992   
N22      N      0.345420000000     0.499240000000     0.819210000000    -0.173188   
N23      N      0.665870000000     0.472640000000     0.844450000000    -0.19347    
N24      N      0.849040000000     0.494810000000     0.667750000000    -0.172971   
N25      N      0.846660000000     0.821820000000     0.999770000000    -0.193194   
N26      N      0.667430000000     0.645490000000     0.002770000000    -0.172547   
N27      N      0.820690000000     0.143570000000     0.013370000000    -0.193465   
N28      N      0.641460000000     0.323950000000     0.005500000000    -0.172408   
N29      N      0.346170000000     0.671600000000     0.975800000000    -0.192355   
N30      N      0.168160000000     0.848360000000     0.979080000000    -0.172862   
N31      N      0.319700000000     0.350200000000     0.996420000000    -0.193133   
N32      N      0.141490000000     0.170010000000     0.983820000000    -0.17279    
N33      N      0.828870000000     0.961250000000     0.844030000000    -0.194428   
N34      N      0.650380000000     0.002120000000     0.656730000000    -0.172984   
N35      N      0.328390000000     0.983390000000     0.645700000000    -0.193298   
N36      N      0.146470000000     0.015520000000     0.826660000000    -0.173035   
N37      N      0.340360000000     0.010550000000     0.324560000000    -0.192644   
N38      N      0.163440000000     0.005100000000     0.147960000000    -0.172984   
N39      N      0.840920000000     0.986940000000     0.163930000000    -0.192493   
N40      N      0.663300000000     0.994750000000     0.336550000000    -0.172841   
N41      N      0.027760000000     0.333870000000     0.655100000000    -0.193691   
N42      N      0.961700000000     0.156850000000     0.836700000000    -0.173624   
N43      N      0.022690000000     0.655480000000     0.650290000000    -0.194119   
N44      N      0.979140000000     0.836280000000     0.835100000000    -0.173307   
N45      N      0.974700000000     0.651940000000     0.332830000000    -0.193703   
N46      N      0.021450000000     0.834480000000     0.154160000000    -0.173147   
N47      N      0.987030000000     0.329370000000     0.335100000000    -0.192069   
N48      N      0.985430000000     0.155410000000     0.157790000000    -0.172768   
O1       O      0.985720000000     0.134600000000     0.076390000000    -0.377635   
O2       O      0.013320000000     0.856660000000     0.073690000000    -0.378908   
O3       O      0.921350000000     0.990410000000     0.138630000000    -0.378685   
O4       O      0.081240000000     0.001180000000     0.130140000000    -0.378008   
O5       O      0.137520000000     0.004740000000     0.068010000000    -0.377023   
O6       O      0.859390000000     0.985540000000     0.082260000000    -0.383702   
O7       O      0.009190000000     0.915230000000     0.133600000000    -0.378504   
O8       O      0.993230000000     0.074860000000     0.134850000000    -0.377624   
O9       O      0.050720000000     0.950110000000     0.042090000000    -0.508603   
O10      O      0.943390000000     0.041110000000     0.047770000000    -0.507939   
O11      O      0.951070000000     0.941430000000     0.047530000000    -0.650058   
O12      O      0.042270000000     0.049570000000     0.042810000000    -0.647654   
O13      O      0.993740000000     0.857580000000     0.914860000000    -0.378017   
O14      O      0.974930000000     0.135590000000     0.916830000000    -0.37818    
O15      O      0.861980000000     0.904570000000     0.001980000000    -0.379135   
O16      O      0.139850000000     0.927500000000     0.985030000000    -0.3784     
O17      O      0.126460000000     0.087310000000     0.988460000000    -0.378448   
O18      O      0.848490000000     0.064280000000     0.006030000000    -0.380862   
O19      O      0.908410000000     0.981680000000     0.861490000000    -0.377402   
O20      O      0.066620000000     0.006420000000     0.852180000000    -0.37925    
O21      O      0.851700000000     0.977600000000     0.923180000000    -0.381904   
O22      O      0.128870000000     0.009310000000     0.908420000000    -0.377313   
O23      O      0.926010000000     0.850250000000     0.997850000000    -0.381078   
O24      O      0.902920000000     0.128290000000     0.003750000000    -0.379532   
O25      O      0.062290000000     0.141670000000     0.988970000000    -0.377848   
O26      O      0.085600000000     0.863320000000     0.987290000000    -0.380214   
O27      O      0.987870000000     0.917220000000     0.856120000000    -0.376456   
O28      O      0.975420000000     0.076440000000     0.857330000000    -0.381281   
O29      O      0.037350000000     0.050320000000     0.943660000000    -0.508705   
O30      O      0.947150000000     0.943570000000     0.948880000000    -0.510823   
O31      O      0.936980000000     0.042090000000     0.948470000000    -0.649787   
O32      O      0.045540000000     0.950430000000     0.942170000000    -0.650149   
O33      O      0.992700000000     0.351740000000     0.415910000000    -0.380585   
O34      O      0.985170000000     0.630730000000     0.413300000000    -0.384128   
O35      O      0.905370000000     0.480590000000     0.363640000000    -0.377586   
O36      O      0.064490000000     0.492580000000     0.348380000000    -0.378128   
O37      O      0.128840000000     0.495750000000     0.402190000000    -0.379136   
O38      O      0.850470000000     0.482360000000     0.427060000000    -0.378286   
O39      O      0.980320000000     0.570750000000     0.354840000000    -0.381662   
O40      O      0.987070000000     0.410720000000     0.356490000000    -0.377941   
O41      O      0.041300000000     0.542720000000     0.439570000000    -0.508692   
O42      O      0.944580000000     0.440750000000     0.449850000000    -0.50928    
O43      O      0.940900000000     0.540590000000     0.448160000000    -0.651062   
O44      O      0.043490000000     0.442860000000     0.440880000000    -0.650225   
O45      O      0.006140000000     0.632770000000     0.571290000000    -0.380028   
O46      O      0.012520000000     0.353930000000     0.574990000000    -0.378475   
O47      O      0.856260000000     0.568740000000     0.510240000000    -0.380265   
O48      O      0.134270000000     0.575740000000     0.480690000000    -0.377461   
O49      O      0.137950000000     0.415240000000     0.483460000000    -0.379821   
O50      O      0.859940000000     0.408640000000     0.507890000000    -0.377476   
O51      O      0.928780000000     0.494850000000     0.639940000000    -0.37967    
O52      O      0.088510000000     0.495110000000     0.625540000000    -0.380592   
O53      O      0.864940000000     0.490360000000     0.585650000000    -0.378356   
O54      O      0.143000000000     0.496540000000     0.561770000000    -0.378966   
O55      O      0.914700000000     0.629120000000     0.507600000000    -0.382154   
O56      O      0.920370000000     0.350370000000     0.503500000000    -0.378974   
O57      O      0.080110000000     0.354440000000     0.488370000000    -0.379052   
O58      O      0.073340000000     0.633540000000     0.484330000000    -0.37618    
O59      O      0.012030000000     0.574230000000     0.631100000000    -0.379949   
O60      O      0.015350000000     0.414180000000     0.633280000000    -0.381947   
O61      O      0.051940000000     0.444380000000     0.539620000000    -0.506209   
O62      O      0.950420000000     0.541340000000     0.547270000000    -0.509301   
O63      O      0.952540000000     0.441290000000     0.549010000000    -0.651065   
O64      O      0.049650000000     0.543410000000     0.538440000000    -0.654082   
O65      O      0.637710000000     0.994500000000     0.416270000000    -0.378917   
O66      O      0.358840000000     0.002730000000     0.406190000000    -0.377494   
O67      O      0.500580000000     0.921230000000     0.348330000000    -0.379528   
O68      O      0.500410000000     0.081540000000     0.355960000000    -0.378687   
O69      O      0.500970000000     0.138050000000     0.417940000000    -0.37913    
O70      O      0.496070000000     0.858970000000     0.404440000000    -0.379699   
O71      O      0.420570000000     0.005050000000     0.349380000000    -0.381796   
O72      O      0.580900000000     0.998060000000     0.354670000000    -0.377217   
O73      O      0.448340000000     0.047460000000     0.442150000000    -0.507305   
O74      O      0.545560000000     0.946450000000     0.441030000000    -0.509112   
O75      O      0.446570000000     0.947870000000     0.436990000000    -0.649628   
O76      O      0.548230000000     0.046040000000     0.445060000000    -0.651818   
O77      O      0.353040000000     0.989180000000     0.565620000000    -0.378674   
O78      O      0.631890000000     0.993800000000     0.575360000000    -0.38106    
O79      O      0.412800000000     0.856150000000     0.481680000000    -0.381122   
O80      O      0.417910000000     0.135100000000     0.494360000000    -0.383651   
O81      O      0.578340000000     0.132320000000     0.500800000000    -0.380161   
O82      O      0.573190000000     0.853990000000     0.480350000000    -0.378082   
O83      O      0.491420000000     0.907580000000     0.626180000000    -0.380424   
O84      O      0.495370000000     0.067410000000     0.633390000000    -0.376886   
O85      O      0.492760000000     0.850820000000     0.564400000000    -0.378776   
O86      O      0.498430000000     0.129880000000     0.577440000000    -0.381294   
O87      O      0.354520000000     0.916730000000     0.481050000000    -0.378622   
O88      O      0.633500000000     0.912280000000     0.486100000000    -0.37977    
O89      O      0.636480000000     0.071690000000     0.498340000000    -0.378704   
O90      O      0.357280000000     0.077000000000     0.490160000000    -0.379618   
O91      O      0.410360000000     0.988170000000     0.626910000000    -0.383094   
O92      O      0.570390000000     0.992860000000     0.632440000000    -0.376725   
O93      O      0.543900000000     0.040470000000     0.544090000000    -0.510243   
O94      O      0.442820000000     0.942910000000     0.536420000000    -0.509662   
O95      O      0.543350000000     0.940710000000     0.540170000000    -0.650131   
O96      O      0.444540000000     0.042880000000     0.541320000000    -0.648473   
O97      O      0.402550000000     0.365360000000     0.995290000000    -0.379232   
O98      O      0.425350000000     0.643260000000     0.980950000000    -0.382255   
O99      O      0.349090000000     0.514090000000     0.061110000000    -0.38039    
O100     O      0.360670000000     0.503990000000     0.901770000000    -0.37865    
O101     O      0.424370000000     0.495540000000     0.847740000000    -0.378426   
O102     O      0.403860000000     0.510710000000     0.124540000000    -0.378721   
O103     O      0.361430000000     0.588750000000     0.977880000000    -0.379543   
O104     O      0.348150000000     0.429250000000     0.990130000000    -0.380661   
O105     O      0.451830000000     0.548630000000     0.936570000000    -0.507719   
O106     O      0.436600000000     0.454760000000     0.040010000000    -0.507821   
O107     O      0.444790000000     0.553870000000     0.035640000000    -0.649209   
O108     O      0.443560000000     0.449440000000     0.941360000000    -0.651295   
O109     O      0.584950000000     0.630500000000     0.993400000000    -0.378405   
O110     O      0.562310000000     0.352420000000     0.001070000000    -0.377677   
O111     O      0.490780000000     0.584520000000     0.126900000000    -0.377552   
O112     O      0.505630000000     0.570380000000     0.849460000000    -0.378929   
O113     O      0.497190000000     0.410560000000     0.857290000000    -0.377548   
O114     O      0.475610000000     0.424930000000     0.134500000000    -0.380451   
O115     O      0.626700000000     0.497300000000     0.081670000000    -0.378903   
O116     O      0.638310000000     0.480460000000     0.923350000000    -0.379957   
O117     O      0.563760000000     0.504420000000     0.136730000000    -0.380821   
O118     O      0.583710000000     0.483600000000     0.859760000000    -0.382598   
O119     O      0.499530000000     0.640800000000     0.065280000000    -0.376988   
O120     O      0.476470000000     0.362850000000     0.078060000000    -0.382001   
O121     O      0.485930000000     0.354870000000     0.919000000000    -0.378685   
O122     O      0.506590000000     0.632880000000     0.905460000000    -0.381343   
O123     O      0.638870000000     0.566390000000     0.000580000000    -0.376259   
O124     O      0.626200000000     0.406860000000     0.005790000000    -0.378683   
O125     O      0.542770000000     0.441550000000     0.948710000000    -0.51059    
O126     O      0.543200000000     0.545570000000     0.042470000000    -0.507922   
O127     O      0.536240000000     0.446270000000     0.048350000000    -0.650226   
O128     O      0.551430000000     0.541270000000     0.943670000000    -0.650249   
O129     O      0.414500000000     0.275050000000     0.151870000000    -0.291341   
O130     O      0.548410000000     0.768800000000     0.333340000000    -0.292256   
O131     O      0.452980000000     0.718110000000     0.834450000000    -0.292968   
O132     O      0.556890000000     0.214510000000     0.651860000000    -0.293075   
O133     O      0.650890000000     0.224940000000     0.456330000000    -0.29299    
O134     O      0.840670000000     0.709520000000     0.585210000000    -0.294045   
O135     O      0.346410000000     0.226950000000     0.545900000000    -0.292708   
O136     O      0.342250000000     0.769550000000     0.420650000000    -0.293035   
O137     O      0.632360000000     0.572210000000     0.222600000000    -0.293577   
O138     O      0.261370000000     0.581680000000     0.129790000000    -0.292009   
O139     O      0.162600000000     0.551390000000     0.709620000000    -0.29343    
O140     O      0.659100000000     0.423670000000     0.773210000000    -0.293057   
O141     O      0.858590000000     0.758100000000     0.942210000000    -0.292323   
O142     O      0.830610000000     0.212080000000     0.065760000000    -0.293697   
O143     O      0.359650000000     0.735970000000     0.032370000000    -0.291251   
O144     O      0.257020000000     0.364270000000     0.054540000000    -0.292387   
O145     O      0.769190000000     0.900350000000     0.859040000000    -0.294023   
O146     O      0.335550000000     0.936380000000     0.718180000000    -0.292455   
O147     O      0.351720000000     0.070580000000     0.262970000000    -0.291367   
O148     O      0.770870000000     0.037160000000     0.151810000000    -0.292306   
O149     O      0.087730000000     0.339010000000     0.717250000000    -0.294172   
O150     O      0.079410000000     0.719640000000     0.637140000000    -0.293502   
O151     O      0.927440000000     0.724550000000     0.339620000000    -0.293257   
O152     O      0.043230000000     0.263390000000     0.342320000000    -0.29215    
Zr1      Zr     0.999310000000     0.995290000000     0.094120000000     1.42297    
Zr2      Zr     0.002640000000     0.897120000000     0.994600000000     1.42845    
Zr3      Zr     0.985840000000     0.094920000000     0.996000000000     1.4212     
Zr4      Zr     0.895440000000     0.987770000000     0.000730000000     1.43166    
Zr5      Zr     0.092980000000     0.003990000000     0.990200000000     1.42371    
Zr6      Zr     0.989130000000     0.997020000000     0.896770000000     1.42562    
Zr7      Zr     0.988280000000     0.491150000000     0.395830000000     1.42513    
Zr8      Zr     0.994590000000     0.591150000000     0.492970000000     1.42653    
Zr9      Zr     0.999340000000     0.392830000000     0.495340000000     1.42523    
Zr10     Zr     0.898090000000     0.489630000000     0.502790000000     1.42558    
Zr11     Zr     0.095920000000     0.494530000000     0.485380000000     1.42851    
Zr12     Zr     0.005340000000     0.493440000000     0.592620000000     1.43062    
Zr13     Zr     0.499080000000     0.999420000000     0.392160000000     1.42701    
Zr14     Zr     0.396240000000     0.996090000000     0.487420000000     1.42171    
Zr15     Zr     0.594400000000     0.992610000000     0.494180000000     1.43059    
Zr16     Zr     0.493680000000     0.895150000000     0.486300000000     1.42439    
Zr17     Zr     0.497320000000     0.093570000000     0.495610000000     1.42881    
Zr18     Zr     0.491940000000     0.989430000000     0.589380000000     1.42442    
Zr19     Zr     0.394980000000     0.505710000000     0.984690000000     1.42625    
Zr20     Zr     0.501820000000     0.596640000000     0.987330000000     1.42463    
Zr21     Zr     0.485740000000     0.399070000000     0.996830000000     1.42525    
Zr22     Zr     0.486660000000     0.502620000000     0.090720000000     1.42741    
Zr23     Zr     0.501000000000     0.492530000000     0.893760000000     1.42662    
Zr24     Zr     0.592270000000     0.489850000000     0.999520000000     1.42402    


