data_structure

_audit_creation_method RASPA-1.0
_audit_creation_date 2023-5-25
_audit_author_name 'Poobodin Mano'

_cell_length_a    27.265
_cell_length_b    27.1799
_cell_length_c    27.1903
_cell_angle_alpha 90
_cell_angle_beta  90
_cell_angle_gamma 90
_cell_volume      20149.6

_symmetry_cell_setting          triclinic
_symmetry_space_group_name_Hall 'P 1'
_symmetry_space_group_name_H-M  'P 1'
_symmetry_Int_Tables_number     1

_symmetry_equiv_pos_as_xyz 'x,y,z'

loop_
_atom_site_label
_atom_site_type_symbol
_atom_site_fract_x
_atom_site_fract_y
_atom_site_fract_z
_atom_site_charge
C1       C      0.001170000000     0.131190000000     0.110630000000     0.401694   
C2       C      0.988530000000     0.881120000000     0.131510000000     0.41136    
C3       C      0.869630000000     0.012830000000     0.123010000000     0.396622   
C4       C      0.120180000000     0.003780000000     0.118400000000     0.408617   
C5       C      0.976580000000     0.861440000000     0.881070000000     0.398512   
C6       C      0.996550000000     0.110940000000     0.860440000000     0.397061   
C7       C      0.860210000000     0.877530000000     0.004730000000     0.415042   
C8       C      0.110080000000     0.863620000000     0.008170000000     0.410972   
C9       C      0.123760000000     0.112940000000     0.978300000000     0.413855   
C10      C      0.874470000000     0.127910000000     0.999150000000     0.41374    
C11      C      0.864210000000     0.988020000000     0.873490000000     0.412689   
C12      C      0.114550000000     0.983180000000     0.868400000000     0.412677   
C13      C      0.979400000000     0.383310000000     0.357920000000     0.412416   
C14      C      0.007070000000     0.632070000000     0.380870000000     0.394063   
C15      C      0.868040000000     0.521770000000     0.372710000000     0.395855   
C16      C      0.117640000000     0.505130000000     0.367130000000     0.399382   
C17      C      0.013790000000     0.608560000000     0.630980000000     0.410357   
C18      C      0.984270000000     0.360080000000     0.607980000000     0.41179    
C19      C      0.882890000000     0.632530000000     0.513270000000     0.410777   
C20      C      0.132120000000     0.608550000000     0.500190000000     0.395155   
C21      C      0.108100000000     0.359630000000     0.477940000000     0.40992    
C22      C      0.858960000000     0.385150000000     0.474600000000     0.40109    
C23      C      0.871650000000     0.493850000000     0.622000000000     0.396749   
C24      C      0.120880000000     0.467650000000     0.615620000000     0.41148    
C25      C      0.622780000000     0.998900000000     0.371020000000     0.412477   
C26      C      0.374050000000     0.969090000000     0.367990000000     0.392156   
C27      C      0.513010000000     0.861510000000     0.378760000000     0.39552    
C28      C      0.487420000000     0.111060000000     0.360150000000     0.409682   
C29      C      0.369540000000     0.982100000000     0.618360000000     0.39753    
C30      C      0.616860000000     0.024550000000     0.620290000000     0.403231   
C31      C      0.383710000000     0.857810000000     0.506140000000     0.409061   
C32      C      0.358030000000     0.106870000000     0.484980000000     0.391669   
C33      C      0.607060000000     0.132190000000     0.497910000000     0.412365   
C34      C      0.633170000000     0.882580000000     0.502670000000     0.396752   
C35      C      0.512900000000     0.879710000000     0.629390000000     0.409714   
C36      C      0.479280000000     0.128110000000     0.611030000000     0.395055   
C37      C      0.374670000000     0.361630000000     0.985090000000     0.395765   
C38      C      0.358640000000     0.611600000000     0.000900000000     0.396621   
C39      C      0.366380000000     0.467260000000     0.116830000000     0.413889   
C40      C      0.368660000000     0.499280000000     0.867780000000     0.394803   
C41      C      0.608160000000     0.627510000000     0.012610000000     0.397312   
C42      C      0.624040000000     0.379810000000     0.974170000000     0.402446   
C43      C      0.481980000000     0.608970000000     0.131060000000     0.409296   
C44      C      0.476460000000     0.629150000000     0.880780000000     0.397881   
C45      C      0.502600000000     0.379810000000     0.860130000000     0.408227   
C46      C      0.496490000000     0.359150000000     0.110360000000     0.396535   
C47      C      0.616020000000     0.489990000000     0.122040000000     0.407177   
C48      C      0.618320000000     0.517470000000     0.872670000000     0.409827   
C49      C      0.489400000000     0.269500000000     0.125580000000     0.00871808 
C50      C      0.485970000000     0.197590000000     0.331360000000     0.0326931  
C51      C      0.498150000000     0.126700000000     0.271030000000     0.339381   
C52      C      0.456890000000     0.224710000000     0.291650000000    -0.124252   
C53      C      0.515630000000     0.231930000000     0.158640000000    -0.096632   
C54      C      0.470310000000     0.156240000000     0.231810000000    -0.196215   
C55      C      0.503250000000     0.241950000000     0.212090000000     0.0215879  
C56      C      0.476700000000     0.210720000000     0.241570000000     0.0735088  
C57      C      0.489740000000     0.330650000000     0.196600000000     0.00720262 
C58      C      0.518350000000     0.293310000000     0.227190000000    -0.0975638  
C59      C      0.531940000000     0.773590000000     0.361260000000     0.0081324  
C60      C      0.477780000000     0.695560000000     0.159730000000     0.033027   
C61      C      0.472480000000     0.625710000000     0.220670000000     0.33772    
C62      C      0.515370000000     0.721210000000     0.192240000000    -0.122301   
C63      C      0.500280000000     0.734250000000     0.335740000000    -0.0948237  
C64      C      0.506050000000     0.654160000000     0.256390000000    -0.194      
C65      C      0.496510000000     0.744230000000     0.280820000000     0.0110488  
C66      C      0.504960000000     0.709080000000     0.245640000000     0.0696442  
C67      C      0.515830000000     0.832930000000     0.292040000000     0.00801257 
C68      C      0.480400000000     0.796320000000     0.268780000000    -0.0947967  
C69      C      0.458460000000     0.717260000000     0.863310000000     0.011957   
C70      C      0.536350000000     0.796090000000     0.657280000000     0.0344097  
C71      C      0.527060000000     0.863500000000     0.718390000000     0.341205   
C72      C      0.504060000000     0.761140000000     0.686730000000    -0.118427   
C73      C      0.487090000000     0.753410000000     0.830670000000    -0.0948953  
C74      C      0.497450000000     0.830190000000     0.753080000000    -0.19525    
C75      C      0.488230000000     0.740300000000     0.775860000000     0.00653292 
C76      C      0.499800000000     0.775240000000     0.740940000000     0.0695409  
C77      C      0.454570000000     0.655480000000     0.796340000000     0.0133595  
C78      C      0.487000000000     0.685770000000     0.762340000000    -0.0955465  
C79      C      0.477730000000     0.156770000000     0.697770000000     0.0112481  
C80      C      0.515950000000     0.363470000000     0.771100000000     0.0326807  
C81      C      0.508630000000     0.293300000000     0.831640000000     0.343159   
C82      C      0.485530000000     0.334460000000     0.733230000000    -0.121301   
C83      C      0.514000000000     0.192820000000     0.720630000000    -0.0973324  
C84      C      0.474520000000     0.266500000000     0.796210000000    -0.197174   
C85      C      0.498460000000     0.245030000000     0.708540000000     0.0149304  
C86      C      0.487700000000     0.279570000000     0.743650000000     0.0754887  
C87      C      0.462330000000     0.216440000000     0.628500000000     0.0101924  
C88      C      0.495340000000     0.254910000000     0.653600000000    -0.0985046  
C89      C      0.830650000000     0.303660000000     0.445340000000     0.0143401  
C90      C      0.622300000000     0.221560000000     0.510620000000     0.0359722  
C91      C      0.690400000000     0.161040000000     0.519480000000     0.345765   
C92      C      0.656260000000     0.258010000000     0.483840000000    -0.11789    
C93      C      0.800300000000     0.267240000000     0.474880000000    -0.0959934  
C94      C      0.724810000000     0.191440000000     0.487640000000    -0.201234   
C95      C      0.746150000000     0.281240000000     0.477650000000     0.00747092 
C96      C      0.711010000000     0.245780000000     0.486410000000     0.0764954  
C97      C      0.770460000000     0.371100000000     0.456720000000     0.0113907  
C98      C      0.733660000000     0.336060000000     0.481490000000    -0.0938928  
C99      C      0.722680000000     0.867560000000     0.494010000000     0.00897078 
C100     C      0.797300000000     0.662120000000     0.522650000000     0.0320398  
C101     C      0.868560000000     0.720780000000     0.532900000000     0.33846    
C102     C      0.770400000000     0.700530000000     0.492030000000    -0.121101   
C103     C      0.760850000000     0.840670000000     0.525970000000    -0.097334   
C104     C      0.839430000000     0.761300000000     0.506090000000    -0.19474    
C105     C      0.751310000000     0.785670000000     0.525340000000     0.0164749  
C106     C      0.784680000000     0.751570000000     0.509260000000     0.0694762  
C107     C      0.663400000000     0.796620000000     0.505700000000     0.0119841  
C108     C      0.699670000000     0.772750000000     0.541030000000    -0.0998064  
C109     C      0.328280000000     0.192930000000     0.482240000000     0.010687   
C110     C      0.122430000000     0.271140000000     0.459860000000     0.0331611  
C111     C      0.193760000000     0.330020000000     0.469400000000     0.34508    
C112     C      0.151940000000     0.230470000000     0.485900000000    -0.121742   
C113     C      0.291010000000     0.218010000000     0.448870000000    -0.097694   
C114     C      0.221290000000     0.291040000000     0.498890000000    -0.199075   
C115     C      0.239790000000     0.205490000000     0.466100000000     0.015019   
C116     C      0.206620000000     0.240050000000     0.481770000000     0.0771845  
C117     C      0.268690000000     0.122240000000     0.494360000000     0.00887901 
C118     C      0.229510000000     0.150620000000     0.464940000000    -0.0986498  
C119     C      0.162480000000     0.694540000000     0.502150000000     0.0132172  
C120     C      0.368860000000     0.769370000000     0.523900000000     0.0325288  
C121     C      0.297880000000     0.828700000000     0.513760000000     0.342785   
C122     C      0.339090000000     0.728840000000     0.497950000000    -0.121697   
C123     C      0.200030000000     0.718790000000     0.535890000000    -0.100639   
C124     C      0.270290000000     0.789820000000     0.484300000000    -0.196628   
C125     C      0.251170000000     0.705300000000     0.519000000000     0.0162099  
C126     C      0.284510000000     0.738970000000     0.502000000000     0.0739738  
C127     C      0.221320000000     0.623480000000     0.489090000000     0.00955957 
C128     C      0.260370000000     0.650280000000     0.519940000000    -0.0991971  
C129     C      0.843330000000     0.532510000000     0.285280000000     0.0139557  
C130     C      0.638710000000     0.474520000000     0.209230000000     0.032035   
C131     C      0.704060000000     0.490490000000     0.145780000000     0.341946   
C132     C      0.665300000000     0.507840000000     0.246230000000    -0.119237   
C133     C      0.809030000000     0.498190000000     0.257110000000    -0.0994453  
C134     C      0.729500000000     0.526240000000     0.180830000000    -0.19472    
C135     C      0.755670000000     0.509520000000     0.269200000000     0.0131374  
C136     C      0.719600000000     0.512200000000     0.234040000000     0.0744565  
C137     C      0.781250000000     0.541660000000     0.352590000000     0.0111841  
C138     C      0.744330000000     0.509950000000     0.324070000000    -0.09746    
C139     C      0.204710000000     0.519960000000     0.345050000000     0.0148862  
C140     C      0.280000000000     0.445960000000     0.136800000000     0.0357983  
C141     C      0.344040000000     0.441370000000     0.201580000000     0.345966   
C142     C      0.245660000000     0.476160000000     0.169380000000    -0.118612   
C143     C      0.237190000000     0.486580000000     0.313810000000    -0.0973362  
C144     C      0.313040000000     0.471110000000     0.237820000000    -0.201214   
C145     C      0.224310000000     0.487450000000     0.259070000000     0.00812433 
C146     C      0.258750000000     0.475050000000     0.224070000000     0.0736835  
C147     C      0.140390000000     0.524320000000     0.280700000000     0.0119466  
C148     C      0.169950000000     0.491760000000     0.245650000000    -0.0946464  
C149     C      0.346320000000     0.514950000000     0.780510000000     0.00890237 
C150     C      0.144770000000     0.453260000000     0.702670000000     0.0344508  
C151     C      0.207280000000     0.445880000000     0.635390000000     0.340751   
C152     C      0.178950000000     0.486460000000     0.732190000000    -0.122626   
C153     C      0.322470000000     0.479220000000     0.743910000000    -0.0942733  
C154     C      0.244220000000     0.476220000000     0.665360000000    -0.197318   
C155     C      0.268210000000     0.472590000000     0.755400000000     0.00774809 
C156     C      0.232350000000     0.475370000000     0.720100000000     0.0732862  
C157     C      0.280900000000     0.496980000000     0.843020000000     0.00968659 
C158     C      0.258150000000     0.458880000000     0.808680000000    -0.095387   
C159     C      0.849330000000     0.477760000000     0.709120000000     0.00979848 
C160     C      0.643140000000     0.528440000000     0.785320000000     0.0339299  
C161     C      0.704970000000     0.538120000000     0.853180000000     0.340358   
C162     C      0.678800000000     0.496030000000     0.756530000000    -0.121728   
C163     C      0.822200000000     0.510010000000     0.746670000000    -0.0955222  
C164     C      0.742650000000     0.507880000000     0.824110000000    -0.196691   
C165     C      0.767850000000     0.513640000000     0.734440000000     0.0119015  
C166     C      0.731680000000     0.508750000000     0.769240000000     0.0739019  
C167     C      0.783730000000     0.493860000000     0.646090000000     0.0114488  
C168     C      0.757870000000     0.528770000000     0.681580000000    -0.0971812  
C169     C      0.694390000000     0.654560000000     0.023790000000     0.0150673  
C170     C      0.771670000000     0.859840000000     0.993560000000     0.0285313  
C171     C      0.832390000000     0.790630000000     0.007660000000     0.344339   
C172     C      0.733710000000     0.833290000000     0.025690000000    -0.119253   
C173     C      0.723180000000     0.692580000000     0.994370000000    -0.103046   
C174     C      0.795230000000     0.765680000000     0.041540000000    -0.196173   
C175     C      0.709560000000     0.744030000000     0.011150000000     0.0215733  
C176     C      0.743530000000     0.778360000000     0.025450000000     0.074323   
C177     C      0.624780000000     0.714900000000     0.033450000000     0.0122778  
C178     C      0.655010000000     0.754860000000     0.007380000000    -0.101307   
C179     C      0.711360000000     0.364200000000     0.952840000000     0.0138926  
C180     C      0.789690000000     0.154410000000     0.018340000000     0.0351912  
C181     C      0.856790000000     0.216390000000     0.013810000000     0.342835   
C182     C      0.756000000000     0.184960000000     0.985810000000    -0.120961   
C183     C      0.747910000000     0.329580000000     0.978170000000    -0.0971069  
C184     C      0.824430000000     0.251780000000     0.984160000000    -0.198006   
C185     C      0.734840000000     0.274830000000     0.975510000000     0.008343   
C186     C      0.769690000000     0.239410000000     0.985120000000     0.0705827  
C187     C      0.649830000000     0.297720000000     0.944140000000     0.0105351  
C188     C      0.680600000000     0.260980000000     0.972890000000    -0.0944108  
C189     C      0.269940000000     0.629030000000     0.990360000000     0.00834228 
C190     C      0.196560000000     0.835740000000     0.014920000000     0.0338808  
C191     C      0.126560000000     0.776220000000     0.028550000000     0.339881   
C192     C      0.223600000000     0.796510000000     0.985250000000    -0.123007   
C193     C      0.232590000000     0.656860000000     0.022180000000    -0.0959723  
C194     C      0.154760000000     0.735950000000     0.000850000000    -0.196884   
C195     C      0.242780000000     0.711710000000     0.019940000000     0.0144252  
C196     C      0.209500000000     0.745660000000     0.003400000000     0.0719129  
C197     C      0.330860000000     0.698540000000     0.001190000000     0.0116851  
C198     C      0.294640000000     0.724510000000     0.035170000000    -0.0983996  
C199     C      0.288080000000     0.333670000000     0.982670000000     0.00896148 
C200     C      0.210990000000     0.128580000000     0.957600000000     0.0301341  
C201     C      0.151570000000     0.199290000000     0.968110000000     0.343936   
C202     C      0.251250000000     0.158160000000     0.983720000000    -0.121222   
C203     C      0.262740000000     0.298400000000     0.947150000000    -0.096896   
C204     C      0.190710000000     0.227520000000     0.996740000000    -0.197571   
C205     C      0.275160000000     0.245990000000     0.961340000000     0.0159214  
C206     C      0.241440000000     0.212950000000     0.978990000000     0.0761402  
C207     C      0.357480000000     0.272220000000     0.991860000000     0.00800022 
C208     C      0.329850000000     0.235920000000     0.958620000000    -0.0982629  
C209     C      0.636610000000     0.050650000000     0.705710000000     0.0147942  
C210     C      0.839470000000     0.969660000000     0.787560000000     0.0341223  
C211     C      0.776020000000     0.977260000000     0.852950000000     0.342731   
C212     C      0.811010000000     0.003070000000     0.752600000000    -0.118847   
C213     C      0.667860000000     0.022230000000     0.742870000000    -0.0975124  
C214     C      0.743700000000     0.009710000000     0.820160000000    -0.197281   
C215     C      0.722430000000     0.019210000000     0.729930000000     0.0107623  
C216     C      0.756640000000     0.007490000000     0.765460000000     0.0724442  
C217     C      0.702000000000     0.048420000000     0.642600000000     0.00990454 
C218     C      0.736380000000     0.018580000000     0.675420000000    -0.093838   
C219     C      0.344770000000     0.975290000000     0.706060000000     0.0097901  
C220     C      0.134460000000     0.990570000000     0.779900000000     0.033523   
C221     C      0.202070000000     0.986500000000     0.843680000000     0.3428     
C222     C      0.165630000000     0.960040000000     0.744280000000    -0.123636   
C223     C      0.303600000000     0.001450000000     0.733900000000    -0.0955205  
C224     C      0.232180000000     0.954380000000     0.808790000000    -0.196791   
C225     C      0.254000000000     0.979260000000     0.721120000000     0.0122765  
C226     C      0.219750000000     0.966320000000     0.755760000000     0.0762018  
C227     C      0.285640000000     0.953540000000     0.638360000000     0.00615836 
C228     C      0.243490000000     0.978130000000     0.666270000000    -0.095436   
C229     C      0.289010000000     0.945310000000     0.345480000000     0.0109203  
C230     C      0.208050000000     0.017120000000     0.138430000000     0.0346849  
C231     C      0.145050000000     0.020220000000     0.204710000000     0.342636   
C232     C      0.242390000000     0.985600000000     0.169870000000    -0.118563   
C233     C      0.253170000000     0.975080000000     0.314240000000    -0.0927172  
C234     C      0.176170000000     0.987980000000     0.238670000000    -0.197418   
C235     C      0.265940000000     0.975980000000     0.259500000000     0.0042408  
C236     C      0.230480000000     0.986490000000     0.224800000000     0.0720888  
C237     C      0.353600000000     0.947890000000     0.281400000000     0.0102682  
C238     C      0.320390000000     0.976070000000     0.245720000000    -0.093065   
C239     C      0.781740000000     0.018610000000     0.146570000000     0.00878747 
C240     C      0.711490000000     0.000730000000     0.350240000000     0.0322984  
C241     C      0.646730000000     0.995270000000     0.282960000000     0.343202   
C242     C      0.740960000000     0.036100000000     0.317820000000    -0.122355   
C243     C      0.752990000000     0.985250000000     0.181550000000    -0.0967044  
C244     C      0.677420000000     0.030920000000     0.251990000000    -0.19687    
C245     C      0.764170000000     0.000410000000     0.234050000000     0.0228844  
C246     C      0.731170000000     0.023760000000     0.264350000000     0.0726124  
C247     C      0.848460000000     0.026650000000     0.210960000000     0.00978519 
C248     C      0.818290000000     0.994080000000     0.245690000000    -0.10048    
C249     C      0.007850000000     0.125850000000     0.771000000000     0.00921602 
C250     C      0.981650000000     0.331180000000     0.694450000000     0.0337848  
C251     C      0.967090000000     0.271690000000     0.624290000000     0.339068   
C252     C      0.014110000000     0.293160000000     0.719610000000    -0.123484   
C253     C      0.976890000000     0.154020000000     0.733030000000    -0.0961102  
C254     C      0.995660000000     0.231620000000     0.652390000000    -0.196517   
C255     C      0.980520000000     0.208990000000     0.742110000000     0.0143143  
C256     C      0.995730000000     0.242090000000     0.707270000000     0.0725737  
C257     C      0.000790000000     0.197090000000     0.830400000000     0.00953968 
C258     C      0.966920000000     0.223310000000     0.794240000000    -0.0963337  
C259     C      0.956790000000     0.834530000000     0.796230000000     0.010662   
C260     C      0.025830000000     0.624200000000     0.720440000000     0.0385885  
C261     C      0.038790000000     0.691440000000     0.659700000000     0.347648   
C262     C      0.997200000000     0.658700000000     0.754880000000    -0.12198    
C263     C      0.989420000000     0.803450000000     0.763050000000    -0.0929555  
C264     C      0.006570000000     0.727200000000     0.688300000000    -0.204038   
C265     C      0.989630000000     0.749000000000     0.776980000000     0.00471052 
C266     C      0.000990000000     0.713540000000     0.742470000000     0.0812674  
C267     C      0.958960000000     0.773190000000     0.863730000000     0.0061259  
C268     C      0.987860000000     0.736530000000     0.831880000000    -0.0913365  
C269     C      0.009900000000     0.661450000000     0.294550000000     0.0117701  
C270     C      0.980210000000     0.865760000000     0.221230000000     0.0323136  
C271     C      0.986980000000     0.794790000000     0.161120000000     0.344575   
C272     C      0.013850000000     0.838570000000     0.257520000000    -0.121337   
C273     C      0.976700000000     0.699490000000     0.270420000000    -0.0979561  
C274     C      0.022920000000     0.769580000000     0.196020000000    -0.198535   
C275     C      0.994990000000     0.750530000000     0.283120000000     0.0152295  
C276     C      0.010810000000     0.783570000000     0.248560000000     0.0753649  
C277     C      0.025460000000     0.720260000000     0.364830000000     0.00984576 
C278     C      0.995890000000     0.760410000000     0.338100000000    -0.100322   
C279     C      0.015600000000     0.220070000000     0.127340000000     0.015589   
C280     C      0.969490000000     0.297440000000     0.328690000000     0.0331043  
C281     C      0.965140000000     0.368300000000     0.268750000000     0.339757   
C282     C      0.002960000000     0.269650000000     0.293540000000    -0.121736   
C283     C      0.981550000000     0.258450000000     0.151090000000    -0.104143   
C284     C      0.994290000000     0.338070000000     0.230710000000    -0.196226   
C285     C      0.977640000000     0.249190000000     0.206050000000     0.0218003  
C286     C      0.990160000000     0.283260000000     0.241030000000     0.0706957  
C287     C      0.998590000000     0.160950000000     0.196940000000     0.010763   
C288     C      0.961540000000     0.197210000000     0.218170000000    -0.0998876  
F1       F      0.548070000000     0.130930000000     0.262540000000    -0.451455   
F2       F      0.424100000000     0.633380000000     0.234190000000    -0.451218   
F3       F      0.576060000000     0.861970000000     0.731860000000    -0.444576   
F4       F      0.556170000000     0.276510000000     0.825170000000    -0.451058   
F5       F      0.697180000000     0.173670000000     0.568420000000    -0.448972   
F6       F      0.864000000000     0.727680000000     0.583170000000    -0.446449   
F7       F      0.208840000000     0.328270000000     0.420790000000    -0.447604   
F8       F      0.282470000000     0.827340000000     0.562290000000    -0.451132   
F9       F      0.725380000000     0.444430000000     0.150220000000    -0.44137    
F10      F      0.335320000000     0.391660000000     0.208940000000    -0.448324   
F11      F      0.215980000000     0.396310000000     0.643560000000    -0.449879   
F12      F      0.713170000000     0.587680000000     0.844490000000    -0.443542   
F13      F      0.829180000000     0.770230000000     0.961090000000    -0.439553   
F14      F      0.853460000000     0.228220000000     0.063290000000    -0.445885   
F15      F      0.133670000000     0.770040000000     0.078630000000    -0.450256   
F16      F      0.152170000000     0.214200000000     0.919400000000    -0.444102   
F17      F      0.761400000000     0.928670000000     0.848020000000    -0.438926   
F18      F      0.217360000000     0.034920000000     0.839520000000    -0.447134   
F19      F      0.154530000000     0.069290000000     0.214840000000    -0.450754   
F20      F      0.655950000000     0.947490000000     0.267850000000    -0.447901   
F21      F      0.917340000000     0.264530000000     0.631720000000    -0.44684    
F22      F      0.087100000000     0.697120000000     0.674570000000    -0.45288    
F23      F      0.940220000000     0.776440000000     0.168940000000    -0.450836   
F24      F      0.915580000000     0.364380000000     0.258240000000    -0.441259   
H1       H      0.919610000000     0.934990000000     0.072950000000     0.212562   
H2       H      0.067440000000     0.067790000000     0.058400000000     0.213312   
H3       H      0.923270000000     0.064900000000     0.921230000000     0.205739   
H4       H      0.056910000000     0.915580000000     0.929680000000     0.205505   
H5       H      0.930870000000     0.579830000000     0.432760000000     0.20823    
H6       H      0.057450000000     0.426600000000     0.415080000000     0.212665   
H7       H      0.919240000000     0.426070000000     0.558840000000     0.213014   
H8       H      0.073400000000     0.552080000000     0.568910000000     0.212861   
H9       H      0.434890000000     0.912490000000     0.429190000000     0.208524   
H10      H      0.560280000000     0.067480000000     0.420840000000     0.211891   
H11      H      0.572320000000     0.937560000000     0.570910000000     0.21488    
H12      H      0.416960000000     0.061880000000     0.559390000000     0.208316   
H13      H      0.415720000000     0.553810000000     0.070350000000     0.211212   
H14      H      0.426980000000     0.425710000000     0.917690000000     0.208765   
H15      H      0.566230000000     0.422600000000     0.060160000000     0.212334   
H16      H      0.557540000000     0.576260000000     0.932100000000     0.213689   
H17      H      0.505890000000     0.194960000000     0.145180000000     0.0521728  
H18      H      0.524150000000     0.212010000000     0.331840000000     0.0439611  
H19      H      0.450220000000     0.328350000000     0.206520000000     0.052597   
H20      H      0.514850000000     0.301440000000     0.266850000000     0.0492956  
H21      H      0.455720000000     0.264640000000     0.299200000000     0.0570488  
H22      H      0.482630000000     0.143420000000     0.195400000000     0.0909366  
H23      H      0.503340000000     0.264700000000     0.087470000000     0.0393532  
H24      H      0.469140000000     0.206290000000     0.367570000000     0.0330585  
H25      H      0.558080000000     0.298040000000     0.219190000000     0.0612899  
H26      H      0.430640000000     0.146980000000     0.234100000000     0.0723869  
H27      H      0.502810000000     0.368000000000     0.206900000000     0.0442022  
H28      H      0.555910000000     0.235740000000     0.153510000000     0.0632576  
H29      H      0.417960000000     0.212690000000     0.294000000000     0.0629947  
H30      H      0.488170000000     0.087380000000     0.265900000000    -0.00955585 
H31      H      0.449590000000     0.260510000000     0.124970000000     0.0377513  
H32      H      0.517700000000     0.698500000000     0.344420000000     0.0445154  
H33      H      0.440650000000     0.710030000000     0.168620000000     0.0486383  
H34      H      0.552790000000     0.827730000000     0.275490000000     0.0440923  
H35      H      0.475730000000     0.804680000000     0.229330000000     0.0466952  
H36      H      0.517220000000     0.760740000000     0.183140000000     0.0517543  
H37      H      0.493360000000     0.644740000000     0.293900000000     0.091428   
H38      H      0.529040000000     0.768350000000     0.401680000000     0.0371403  
H39      H      0.485780000000     0.705240000000     0.120850000000     0.0326275  
H40      H      0.443450000000     0.802160000000     0.285120000000     0.0561672  
H41      H      0.544360000000     0.640720000000     0.252460000000     0.0678405  
H42      H      0.503290000000     0.870710000000     0.282790000000     0.0448657  
H43      H      0.462850000000     0.734360000000     0.351920000000     0.0563016  
H44      H      0.552370000000     0.706680000000     0.182910000000     0.0571807  
H45      H      0.480250000000     0.585850000000     0.225360000000    -0.0105464  
H46      H      0.570910000000     0.766920000000     0.351120000000     0.0338936  
H47      H      0.469550000000     0.789700000000     0.836890000000     0.0454657  
H48      H      0.575140000000     0.790440000000     0.668730000000     0.0571414  
H49      H      0.415640000000     0.665710000000     0.789360000000     0.0297915  
H50      H      0.471640000000     0.679760000000     0.725030000000     0.0432085  
H51      H      0.521170000000     0.724410000000     0.681920000000     0.0515237  
H52      H      0.511740000000     0.837950000000     0.790480000000     0.0979066  
H53      H      0.468880000000     0.723780000000     0.902280000000     0.0372228  
H54      H      0.533910000000     0.785840000000     0.617790000000     0.0326208  
H55      H      0.525010000000     0.671010000000     0.763360000000     0.0585855  
H56      H      0.458340000000     0.841690000000     0.751920000000     0.0717608  
H57      H      0.458540000000     0.616000000000     0.786530000000     0.0367946  
H58      H      0.525560000000     0.755390000000     0.844050000000     0.0620892  
H59      H      0.466720000000     0.760350000000     0.670320000000     0.0576731  
H60      H      0.514160000000     0.901900000000     0.723840000000    -0.00961902 
H61      H      0.418660000000     0.725720000000     0.859870000000     0.029626   
H62      H      0.519120000000     0.184740000000     0.760110000000     0.063048   
H63      H      0.555470000000     0.357800000000     0.762650000000     0.0503363  
H64      H      0.423670000000     0.224220000000     0.639040000000     0.0312284  
H65      H      0.479500000000     0.291240000000     0.644400000000     0.0449526  
H66      H      0.500600000000     0.344490000000     0.696780000000     0.0513577  
H67      H      0.473800000000     0.226810000000     0.804830000000     0.08612    
H68      H      0.489750000000     0.118800000000     0.706930000000     0.0395204  
H69      H      0.508260000000     0.403280000000     0.765950000000     0.0314267  
H70      H      0.532800000000     0.253120000000     0.637540000000     0.0590526  
H71      H      0.436390000000     0.279310000000     0.803130000000     0.0707083  
H72      H      0.464980000000     0.221520000000     0.588050000000     0.0381363  
H73      H      0.550670000000     0.186340000000     0.703890000000     0.0680913  
H74      H      0.446690000000     0.346780000000     0.734710000000     0.054589   
H75      H      0.497070000000     0.283660000000     0.869620000000    -0.0127865  
H76      H      0.441040000000     0.162580000000     0.714710000000     0.0313969  
H77      H      0.805670000000     0.231410000000     0.456040000000     0.0478004  
H78      H      0.621830000000     0.231150000000     0.550400000000     0.054513   
H79      H      0.761890000000     0.372640000000     0.416730000000     0.0342648  
H80      H      0.697790000000     0.344230000000     0.464070000000     0.0431857  
H81      H      0.648270000000     0.294390000000     0.500470000000     0.0520465  
H82      H      0.761790000000     0.185340000000     0.503550000000     0.0963649  
H83      H      0.869840000000     0.292730000000     0.447760000000     0.0433971  
H84      H      0.584350000000     0.226830000000     0.496640000000     0.0316603  
H85      H      0.731130000000     0.345660000000     0.521150000000     0.0568501  
H86      H      0.724480000000     0.176830000000     0.449450000000     0.0729238  
H87      H      0.764770000000     0.408730000000     0.471680000000     0.0371578  
H88      H      0.815280000000     0.264610000000     0.512820000000     0.0724542  
H89      H      0.645550000000     0.259440000000     0.444430000000     0.0551938  
H90      H      0.701200000000     0.121830000000     0.515430000000    -0.0120198  
H91      H      0.819770000000     0.300770000000     0.405980000000     0.0377576  
H92      H      0.797290000000     0.851280000000     0.511610000000     0.0472539  
H93      H      0.784830000000     0.665000000000     0.561500000000     0.051239   
H94      H      0.668520000000     0.780540000000     0.468420000000     0.0310255  
H95      H      0.692230000000     0.732960000000     0.544930000000     0.0483736  
H96      H      0.730610000000     0.692780000000     0.491790000000     0.0488771  
H97      H      0.850640000000     0.796570000000     0.523030000000     0.0929711  
H98      H      0.726900000000     0.907750000000     0.500200000000     0.0390742  
H99      H      0.786600000000     0.625130000000     0.508950000000     0.0316186  
H100     H      0.693340000000     0.788200000000     0.578390000000     0.0645051  
H101     H      0.850420000000     0.762230000000     0.466730000000     0.0680367  
H102     H      0.625760000000     0.787150000000     0.518180000000     0.0370208  
H103     H      0.758260000000     0.854210000000     0.564460000000     0.0614324  
H104     H      0.782080000000     0.696500000000     0.453040000000     0.0543591  
H105     H      0.907900000000     0.725830000000     0.523450000000    -0.0108021  
H106     H      0.731570000000     0.860490000000     0.454700000000     0.0342461  
H107     H      0.298990000000     0.257760000000     0.445680000000     0.0658004  
H108     H      0.125910000000     0.265660000000     0.419460000000     0.0492698  
H109     H      0.261270000000     0.127640000000     0.534220000000     0.031115   
H110     H      0.193680000000     0.140420000000     0.481080000000     0.045247   
H111     H      0.140450000000     0.195420000000     0.468650000000     0.0525755  
H112     H      0.261070000000     0.298770000000     0.498320000000     0.0923529  
H113     H      0.365510000000     0.202160000000     0.468370000000     0.03879    
H114     H      0.083080000000     0.266020000000     0.469200000000     0.0338362  
H115     H      0.229800000000     0.137870000000     0.426100000000     0.0579288  
H116     H      0.210560000000     0.294710000000     0.538200000000     0.0867043  
H117     H      0.263980000000     0.082360000000     0.486620000000     0.0382128  
H118     H      0.295740000000     0.203380000000     0.410960000000     0.0655859  
H119     H      0.141600000000     0.229180000000     0.525420000000     0.0576694  
H120     H      0.204190000000     0.366560000000     0.484470000000    -0.00377961 
H121     H      0.324940000000     0.208390000000     0.519980000000     0.0320874  
H122     H      0.192930000000     0.758710000000     0.539220000000     0.0694341  
H123     H      0.365350000000     0.764040000000     0.564320000000     0.0484306  
H124     H      0.229100000000     0.630480000000     0.449540000000     0.0319747  
H125     H      0.296400000000     0.639310000000     0.504790000000     0.0446268  
H126     H      0.350330000000     0.693760000000     0.515270000000     0.0506417  
H127     H      0.230530000000     0.797740000000     0.484490000000     0.0852252  
H128     H      0.125290000000     0.704060000000     0.515900000000     0.0446312  
H129     H      0.408170000000     0.764020000000     0.514510000000     0.0309081  
H130     H      0.258590000000     0.637080000000     0.558600000000     0.0555667  
H131     H      0.281380000000     0.793130000000     0.445070000000     0.0691434  
H132     H      0.225700000000     0.583300000000     0.495210000000     0.0389648  
H133     H      0.194720000000     0.704090000000     0.573700000000     0.0752468  
H134     H      0.349470000000     0.727370000000     0.458440000000     0.054444   
H135     H      0.287710000000     0.865210000000     0.498450000000    -0.0133155  
H136     H      0.166230000000     0.710290000000     0.464570000000     0.0307393  
H137     H      0.818850000000     0.499480000000     0.217820000000     0.0675915  
H138     H      0.650040000000     0.435840000000     0.216290000000     0.0532398  
H139     H      0.773870000000     0.580950000000     0.343820000000     0.0275945  
H140     H      0.707870000000     0.525950000000     0.332400000000     0.0423087  
H141     H      0.658490000000     0.491100000000     0.282760000000     0.0506569  
H142     H      0.768430000000     0.529410000000     0.170350000000     0.0905487  
H143     H      0.881810000000     0.522180000000     0.276640000000     0.0463667  
H144     H      0.598690000000     0.476710000000     0.216650000000     0.0335578  
H145     H      0.745260000000     0.471600000000     0.338240000000     0.057462   
H146     H      0.713930000000     0.563560000000     0.174680000000     0.070742   
H147     H      0.774410000000     0.536790000000     0.392580000000     0.0358484  
H148     H      0.816630000000     0.459750000000     0.268870000000     0.0846697  
H149     H      0.648510000000     0.545110000000     0.245800000000     0.0528011  
H150     H      0.710540000000     0.503670000000     0.107650000000    -0.00838975 
H151     H      0.837450000000     0.570760000000     0.271950000000     0.0310031  
H152     H      0.275090000000     0.499630000000     0.320750000000     0.0511606  
H153     H      0.271130000000     0.406320000000     0.141850000000     0.057515   
H154     H      0.149630000000     0.563450000000     0.272950000000     0.0325858  
H155     H      0.164700000000     0.508420000000     0.208780000000     0.0450644  
H156     H      0.208560000000     0.460750000000     0.162690000000     0.0525424  
H157     H      0.318050000000     0.452650000000     0.273870000000     0.101423   
H158     H      0.212520000000     0.512680000000     0.384490000000     0.0423649  
H159     H      0.272250000000     0.455070000000     0.097730000000     0.0330815  
H160     H      0.153750000000     0.454240000000     0.245330000000     0.0570368  
H161     H      0.328320000000     0.508950000000     0.240450000000     0.0841605  
H162     H      0.100760000000     0.519370000000     0.272550000000     0.0387791  
H163     H      0.233960000000     0.448140000000     0.327360000000     0.0729435  
H164     H      0.246120000000     0.515060000000     0.156740000000     0.0575644  
H165     H      0.383280000000     0.448170000000     0.210260000000    -0.00737872 
H166     H      0.215260000000     0.558830000000     0.337680000000     0.0319319  
H167     H      0.329400000000     0.495060000000     0.707040000000     0.0440992  
H168     H      0.150340000000     0.414570000000     0.714800000000     0.0537523  
H169     H      0.262240000000     0.532900000000     0.837090000000     0.0311716  
H170     H      0.219300000000     0.453450000000     0.818530000000     0.0468093  
H171     H      0.168800000000     0.483720000000     0.771330000000     0.0520001  
H172     H      0.280640000000     0.460080000000     0.657070000000     0.0931967  
H173     H      0.386500000000     0.515450000000     0.773710000000     0.0363449  
H174     H      0.106280000000     0.463450000000     0.711390000000     0.0336683  
H175     H      0.275890000000     0.422760000000     0.815920000000     0.0571927  
H176     H      0.243960000000     0.514990000000     0.652320000000     0.0711988  
H177     H      0.273880000000     0.485510000000     0.881600000000     0.0366926  
H178     H      0.341080000000     0.442890000000     0.745970000000     0.0549843  
H179     H      0.171560000000     0.525310000000     0.721740000000     0.0604315  
H180     H      0.214370000000     0.453100000000     0.595810000000    -0.00942828 
H181     H      0.332400000000     0.552620000000     0.772600000000     0.0307607  
H182     H      0.829340000000     0.492800000000     0.782900000000     0.0471287  
H183     H      0.647270000000     0.567090000000     0.772520000000     0.0530544  
H184     H      0.767140000000     0.456650000000     0.649770000000     0.0327156  
H185     H      0.718900000000     0.531710000000     0.671190000000     0.0470534  
H186     H      0.669250000000     0.497980000000     0.717190000000     0.05113    
H187     H      0.778810000000     0.524100000000     0.833250000000     0.0963057  
H188     H      0.889300000000     0.480520000000     0.716570000000     0.0394456  
H189     H      0.605140000000     0.516520000000     0.776580000000     0.0326777  
H190     H      0.773110000000     0.566340000000     0.676170000000     0.0653934  
H191     H      0.742230000000     0.469120000000     0.837170000000     0.0722504  
H192     H      0.776760000000     0.506840000000     0.607970000000     0.0379523  
H193     H      0.838350000000     0.547560000000     0.746850000000     0.0630609  
H194     H      0.672410000000     0.457080000000     0.767260000000     0.0603462  
H195     H      0.711750000000     0.531470000000     0.892910000000    -0.00762172 
H196     H      0.838590000000     0.438780000000     0.715490000000     0.0346954  
H197     H      0.762670000000     0.683690000000     0.995670000000     0.0733688  
H198     H      0.763750000000     0.851210000000     0.954360000000     0.0736715  
H199     H      0.629170000000     0.719750000000     0.073840000000     0.029933   
H200     H      0.644260000000     0.789920000000     0.025020000000     0.0478412  
H201     H      0.697380000000     0.843760000000     0.010940000000     0.0570561  
H202     H      0.803220000000     0.725970000000     0.044810000000     0.0929121  
H203     H      0.704340000000     0.617430000000     0.009900000000     0.0465929  
H204     H      0.766240000000     0.900090000000     0.998240000000     0.0435716  
H205     H      0.644440000000     0.756590000000     0.967930000000     0.0638486  
H206     H      0.800600000000     0.780380000000     0.079350000000     0.0806388  
H207     H      0.585440000000     0.721210000000     0.024850000000     0.0377134  
H208     H      0.712830000000     0.688980000000     0.954960000000     0.084113   
H209     H      0.736120000000     0.847220000000     0.064050000000     0.0577273  
H210     H      0.869620000000     0.782660000000     0.022300000000    -0.000915188
H211     H      0.705930000000     0.656650000000     0.062990000000     0.0312415  
H212     H      0.783660000000     0.337050000000     0.960180000000     0.0488544  
H213     H      0.782390000000     0.164110000000     0.057430000000     0.0578905  
H214     H      0.659350000000     0.294410000000     0.904460000000     0.0497234  
H215     H      0.675140000000     0.225350000000     0.953690000000     0.0489674  
H216     H      0.718720000000     0.178680000000     0.000890000000     0.0540371  
H217     H      0.832040000000     0.288790000000     0.999500000000     0.0996423  
H218     H      0.718070000000     0.402280000000     0.966120000000     0.0438957  
H219     H      0.779860000000     0.115020000000     0.013670000000     0.0345036  
H220     H      0.665950000000     0.257870000000     0.010920000000     0.0592006  
H221     H      0.836740000000     0.251470000000     0.945190000000     0.0709692  
H222     H      0.610560000000     0.287480000000     0.947930000000     0.0527101  
H223     H      0.750790000000     0.340070000000     0.017580000000     0.0726114  
H224     H      0.757260000000     0.170520000000     0.947580000000     0.0564429  
H225     H      0.895450000000     0.222570000000     0.002420000000    -0.00993015 
H226     H      0.719030000000     0.363920000000     0.912630000000     0.0325433  
H227     H      0.195990000000     0.646010000000     0.008510000000     0.0471465  
H228     H      0.210000000000     0.834700000000     0.053540000000     0.048858   
H229     H      0.326720000000     0.713640000000     0.963390000000     0.0294829  
H230     H      0.302760000000     0.764300000000     0.037220000000     0.047323   
H231     H      0.263350000000     0.804380000000     0.984910000000     0.0497073  
H232     H      0.143370000000     0.700710000000     0.017640000000     0.0933402  
H233     H      0.264540000000     0.588990000000     0.996570000000     0.037429   
H234     H      0.206070000000     0.872360000000     0.999440000000     0.0315579  
H235     H      0.300560000000     0.710700000000     0.073220000000     0.0611915  
H236     H      0.143120000000     0.735510000000     0.961670000000     0.0695929  
H237     H      0.368580000000     0.707330000000     0.013920000000     0.0375294  
H238     H      0.235600000000     0.644230000000     0.060950000000     0.0590198  
H239     H      0.211960000000     0.799670000000     0.946180000000     0.0547587  
H240     H      0.086910000000     0.770410000000     0.021120000000    -0.00793892 
H241     H      0.261460000000     0.636380000000     0.951010000000     0.0315315  
H242     H      0.223150000000     0.306680000000     0.944340000000     0.062552   
H243     H      0.215920000000     0.132980000000     0.917220000000     0.0729602  
H244     H      0.350140000000     0.262170000000     0.030840000000     0.0360914  
H245     H      0.340980000000     0.198680000000     0.970350000000     0.0461836  
H246     H      0.286150000000     0.146060000000     0.967010000000     0.0560521  
H247     H      0.182590000000     0.267310000000     0.995910000000     0.0874835  
H248     H      0.279540000000     0.371880000000     0.970920000000     0.0375201  
H249     H      0.216770000000     0.088990000000     0.966000000000     0.0467807  
H250     H      0.342380000000     0.240700000000     0.920000000000     0.0555907  
H251     H      0.187720000000     0.217130000000     0.036200000000     0.0741639  
H252     H      0.397430000000     0.267140000000     0.985580000000     0.0392983  
H253     H      0.277290000000     0.305370000000     0.909570000000     0.0605899  
H254     H      0.252090000000     0.148100000000     0.023340000000     0.0576834  
H255     H      0.115280000000     0.209230000000     0.983880000000    -0.0109816  
H256     H      0.272520000000     0.328370000000     0.020120000000     0.0359411  
H257     H      0.662090000000     0.041420000000     0.778420000000     0.0503149  
H258     H      0.828740000000     0.930870000000     0.780090000000     0.0617143  
H259     H      0.709440000000     0.088210000000     0.648850000000     0.0569946  
H260     H      0.773280000000     0.034750000000     0.669410000000     0.0483662  
H261     H      0.816720000000     0.986880000000     0.715590000000     0.0538176  
H262     H      0.705610000000     0.997350000000     0.827350000000     0.0999456  
H263     H      0.597270000000     0.043430000000     0.713590000000     0.0433304  
H264     H      0.879160000000     0.972950000000     0.778880000000     0.0338831  
H265     H      0.736790000000     0.979770000000     0.662540000000     0.0596548  
H266     H      0.747020000000     0.048560000000     0.832490000000     0.071436   
H267     H      0.710940000000     0.040450000000     0.603540000000     0.048779   
H268     H      0.653310000000     0.984160000000     0.746110000000     0.0764297  
H269     H      0.827570000000     0.040440000000     0.753110000000     0.0564812  
H270     H      0.769290000000     0.988130000000     0.891770000000    -0.0100488  
H271     H      0.642900000000     0.090700000000     0.711540000000     0.038745   
H272     H      0.312680000000     0.002210000000     0.773430000000     0.0605401  
H273     H      0.139000000000     0.030160000000     0.770510000000     0.0512775  
H274     H      0.285190000000     0.913500000000     0.646910000000     0.0564789  
H275     H      0.210520000000     0.956430000000     0.656620000000     0.0498844  
H276     H      0.155030000000     0.972580000000     0.707070000000     0.0530203  
H277     H      0.271440000000     0.956690000000     0.818440000000     0.0864579  
H278     H      0.379820000000     0.994550000000     0.714140000000     0.0383727  
H279     H      0.095340000000     0.981140000000     0.773310000000     0.032613   
H280     H      0.238330000000     0.016360000000     0.652730000000     0.054353   
H281     H      0.222140000000     0.915300000000     0.815510000000     0.0700477  
H282     H      0.278220000000     0.957240000000     0.598350000000     0.0518619  
H283     H      0.303120000000     0.040670000000     0.722260000000     0.0634904  
H284     H      0.155680000000     0.920520000000     0.747630000000     0.0584366  
H285     H      0.209970000000     0.974100000000     0.881820000000    -0.0132915  
H286     H      0.347950000000     0.937020000000     0.720230000000     0.0344596  
H287     H      0.216890000000     0.957790000000     0.320810000000     0.0439688  
H288     H      0.218030000000     0.056450000000     0.143840000000     0.053141   
H289     H      0.349330000000     0.907820000000     0.274090000000     0.0289088  
H290     H      0.326600000000     0.958450000000     0.209460000000     0.0435045  
H291     H      0.279620000000     0.000050000000     0.162130000000     0.0513456  
H292     H      0.170310000000     0.003200000000     0.276040000000     0.0936371  
H293     H      0.280330000000     0.951690000000     0.384890000000     0.03743    
H294     H      0.214920000000     0.008380000000     0.099110000000     0.0333664  
H295     H      0.333010000000     0.014900000000     0.243630000000     0.0552954  
H296     H      0.161660000000     0.949760000000     0.237940000000     0.0723697  
H297     H      0.392370000000     0.957530000000     0.273260000000     0.0385422  
H298     H      0.252090000000     0.013560000000     0.328040000000     0.0593831  
H299     H      0.240620000000     0.946860000000     0.156910000000     0.0579651  
H300     H      0.105910000000     0.013220000000     0.213690000000    -0.0112816  
H301     H      0.282740000000     0.905530000000     0.338000000000     0.0282453  
H302     H      0.713910000000     0.984720000000     0.171190000000     0.0621461  
H303     H      0.726790000000     0.963050000000     0.345830000000     0.0472015  
H304     H      0.841040000000     0.065840000000     0.220110000000     0.0349927  
H305     H      0.829230000000     0.001650000000     0.283940000000     0.0458298  
H306     H      0.779710000000     0.035820000000     0.329280000000     0.0502478  
H307     H      0.667680000000     0.027780000000     0.212760000000     0.0938122  
H308     H      0.774190000000     0.006510000000     0.108290000000     0.0399166  
H309     H      0.717100000000     0.011560000000     0.389230000000     0.0327874  
H310     H      0.828590000000     0.955020000000     0.239170000000     0.0585191  
H311     H      0.666710000000     0.069140000000     0.261990000000     0.0883766  
H312     H      0.887980000000     0.019790000000     0.218170000000     0.0383866  
H313     H      0.765600000000     0.946720000000     0.176040000000     0.0637264  
H314     H      0.728160000000     0.074260000000     0.325180000000     0.0586463  
H315     H      0.607470000000     0.003320000000     0.275450000000     0.000908878
H316     H      0.767780000000     0.056890000000     0.150340000000     0.0370114  
H317     H      0.990400000000     0.142410000000     0.696480000000     0.0472003  
H318     H      0.943880000000     0.328400000000     0.709670000000     0.0478664  
H319     H      0.038930000000     0.210510000000     0.824780000000     0.0496932  
H320     H      0.966250000000     0.263270000000     0.801700000000     0.0482707  
H321     H      0.017460000000     0.301380000000     0.759270000000     0.0555499  
H322     H      0.978410000000     0.196150000000     0.642470000000     0.0937247  
H323     H      0.000260000000     0.085930000000     0.766570000000     0.039013   
H324     H      0.995970000000     0.368280000000     0.703830000000     0.03443    
H325     H      0.928710000000     0.210800000000     0.801260000000     0.0572419  
H326     H      0.034200000000     0.230730000000     0.639070000000     0.0729788  
H327     H      0.989470000000     0.207360000000     0.868290000000     0.0436523  
H328     H      0.937900000000     0.142490000000     0.736150000000     0.0581538  
H329     H      0.051990000000     0.296950000000     0.704910000000     0.0652165  
H330     H      0.974370000000     0.266330000000     0.584440000000    -0.0100432  
H331     H      0.047250000000     0.131540000000     0.761980000000     0.0395748  
H332     H      0.974820000000     0.809400000000     0.725430000000     0.0504577  
H333     H      0.064970000000     0.624160000000     0.732030000000     0.0515057  
H334     H      0.919180000000     0.764950000000     0.859710000000     0.0588306  
H335     H      0.970200000000     0.700350000000     0.838380000000     0.0499673  
H336     H      0.011520000000     0.650910000000     0.792250000000     0.0546194  
H337     H      0.024280000000     0.763640000000     0.683550000000     0.0980511  
H338     H      0.961630000000     0.873850000000     0.786160000000     0.0405133  
H339     H      0.011850000000     0.586140000000     0.725590000000     0.0323969  
H340     H      0.026170000000     0.734630000000     0.845710000000     0.0535157  
H341     H      0.969560000000     0.728490000000     0.671180000000     0.0933475  
H342     H      0.968650000000     0.766880000000     0.902930000000     0.0512538  
H343     H      0.027610000000     0.817670000000     0.764640000000     0.0575791  
H344     H      0.957790000000     0.648240000000     0.753940000000     0.0635183  
H345     H      0.036930000000     0.701790000000     0.620220000000    -0.00731575 
H346     H      0.917850000000     0.824870000000     0.788590000000     0.045461   
H347     H      0.972670000000     0.691790000000     0.230710000000     0.0686453  
H348     H      0.941500000000     0.858720000000     0.232090000000     0.0469116  
H349     H      0.065030000000     0.726180000000     0.356790000000     0.0316519  
H350     H      0.013090000000     0.795830000000     0.348220000000     0.0446688  
H351     H      0.002420000000     0.850110000000     0.294780000000     0.0503602  
H352     H      0.024750000000     0.729610000000     0.188690000000     0.0944314  
H353     H      0.995890000000     0.624300000000     0.284910000000     0.0385808  
H354     H      0.986620000000     0.905900000000     0.225420000000     0.0329057  
H355     H      0.957640000000     0.760660000000     0.352230000000     0.0531566  
H356     H      0.060430000000     0.783290000000     0.187590000000     0.0905112  
H357     H      0.020510000000     0.725330000000     0.405070000000     0.0380372  
H358     H      0.939110000000     0.695240000000     0.285760000000     0.0626102  
H359     H      0.052340000000     0.850930000000     0.252050000000     0.057241   
H360     H      0.997980000000     0.785230000000     0.122940000000     0.00119867 
H361     H      0.047450000000     0.664900000000     0.278880000000     0.0333655  
H362     H      0.996750000000     0.294920000000     0.141460000000     0.0543359  
H363     H      0.930950000000     0.285580000000     0.322340000000     0.0513816  
H364     H      0.034680000000     0.166870000000     0.215080000000     0.0433719  
H365     H      0.954910000000     0.189730000000     0.257560000000     0.0494221  
H366     H      0.002300000000     0.229940000000     0.302080000000     0.0536308  
H367     H      0.979790000000     0.348790000000     0.194240000000     0.0986006  
H368     H      0.013850000000     0.224600000000     0.086770000000     0.0454263  
H369     H      0.979490000000     0.286830000000     0.366860000000     0.0339166  
H370     H      0.925490000000     0.190550000000     0.200200000000     0.0712951  
H371     H      0.033600000000     0.348830000000     0.232180000000     0.0728243  
H372     H      0.986190000000     0.123080000000     0.205990000000     0.0436991  
H373     H      0.944430000000     0.255690000000     0.134380000000     0.0878477  
H374     H      0.041450000000     0.281250000000     0.300620000000     0.062232   
H375     H      0.975510000000     0.407550000000     0.263970000000    -0.00902697 
H376     H      0.053910000000     0.228460000000     0.138660000000     0.0342245  
N1       N      0.487380000000     0.143910000000     0.321750000000    -0.199457   
N2       N      0.495240000000     0.320800000000     0.143240000000    -0.168437   
N3       N      0.479010000000     0.642010000000     0.169130000000    -0.199638   
N4       N      0.518620000000     0.823950000000     0.345520000000    -0.169923   
N5       N      0.522370000000     0.847380000000     0.666950000000    -0.200569   
N6       N      0.466530000000     0.666090000000     0.847910000000    -0.17199    
N7       N      0.506840000000     0.346830000000     0.822130000000    -0.201049   
N8       N      0.474490000000     0.165770000000     0.644280000000    -0.171723   
N9       N      0.639120000000     0.170370000000     0.505510000000    -0.202105   
N10      N      0.821260000000     0.353960000000     0.462590000000    -0.169583   
N11      N      0.850790000000     0.670800000000     0.520420000000    -0.199353   
N12      N      0.671930000000     0.850340000000     0.503320000000    -0.17111    
N13      N      0.140280000000     0.321190000000     0.471910000000    -0.198891   
N14      N      0.319330000000     0.139250000000     0.484090000000    -0.171663   
N15      N      0.351340000000     0.819490000000     0.511660000000    -0.200862   
N16      N      0.170880000000     0.640800000000     0.499870000000    -0.170979   
N17      N      0.651360000000     0.487070000000     0.157880000000    -0.200178   
N18      N      0.832200000000     0.530190000000     0.338300000000    -0.171808   
N19      N      0.331400000000     0.454370000000     0.150680000000    -0.201063   
N20      N      0.152830000000     0.513310000000     0.332090000000    -0.171453   
N21      N      0.156360000000     0.457370000000     0.649850000000    -0.200151   
N22      N      0.333590000000     0.502290000000     0.831770000000    -0.17279    
N23      N      0.654270000000     0.525890000000     0.838370000000    -0.19949    
N24      N      0.836490000000     0.490950000000     0.658000000000    -0.170801   
N25      N      0.822520000000     0.844070000000     0.004650000000    -0.19642    
N26      N      0.641260000000     0.664740000000     0.020370000000    -0.171714   
N27      N      0.841300000000     0.165000000000     0.006880000000    -0.20169    
N28      N      0.660600000000     0.347950000000     0.960730000000    -0.169689   
N29      N      0.143200000000     0.826140000000     0.014460000000    -0.200481   
N30      N      0.320940000000     0.645010000000     0.000160000000    -0.172109   
N31      N      0.161180000000     0.145830000000     0.970740000000    -0.197849   
N32      N      0.341440000000     0.323740000000     0.984080000000    -0.17143    
N33      N      0.828000000000     0.981500000000     0.839060000000    -0.200543   
N34      N      0.650650000000     0.038080000000     0.655110000000    -0.167293   
N35      N      0.149200000000     0.983390000000     0.831790000000    -0.200634   
N36      N      0.333860000000     0.973660000000     0.652920000000    -0.170104   
N37      N      0.156480000000     0.010240000000     0.152780000000    -0.200994   
N38      N      0.339900000000     0.957610000000     0.332740000000    -0.172073   
N39      N      0.658950000000     0.000000000000     0.335930000000    -0.197946   
N40      N      0.834670000000     0.017860000000     0.158960000000    -0.170937   
N41      N      0.980130000000     0.321940000000     0.640840000000    -0.198894   
N42      N      0.999260000000     0.143400000000     0.821870000000    -0.169843   
N43      N      0.023080000000     0.640520000000     0.668940000000    -0.200944   
N44      N      0.967570000000     0.824260000000     0.848140000000    -0.167698   
N45      N      0.987080000000     0.848500000000     0.169970000000    -0.199328   
N46      N      0.011970000000     0.670200000000     0.348190000000    -0.172661   
N47      N      0.973600000000     0.350910000000     0.319650000000    -0.199092   
N48      N      0.003710000000     0.169400000000     0.143480000000    -0.167938   
O1       O      0.003190000000     0.141330000000     0.064190000000    -0.36987    
O2       O      0.986940000000     0.863670000000     0.087260000000    -0.366777   
O3       O      0.915280000000     0.012570000000     0.136050000000    -0.373954   
O4       O      0.075070000000     0.005150000000     0.133150000000    -0.374177   
O5       O      0.132970000000     0.998440000000     0.072870000000    -0.37856    
O6       O      0.854990000000     0.008600000000     0.077980000000    -0.375642   
O7       O      0.990860000000     0.927560000000     0.141590000000    -0.381278   
O8       O      0.997220000000     0.087020000000     0.127930000000    -0.371039   
O9       O      0.040070000000     0.947260000000     0.048850000000    -0.508468   
O10      O      0.946630000000     0.051780000000     0.042060000000    -0.508542   
O11      O      0.940770000000     0.952680000000     0.050630000000    -0.654383   
O12      O      0.045480000000     0.046560000000     0.040370000000    -0.652433   
O13      O      0.978900000000     0.850570000000     0.927370000000    -0.368189   
O14      O      0.996730000000     0.128530000000     0.904690000000    -0.372903   
O15      O      0.849180000000     0.923680000000     0.001580000000    -0.373544   
O16      O      0.126640000000     0.907940000000     0.002830000000    -0.380276   
O17      O      0.134850000000     0.066840000000     0.982110000000    -0.370427   
O18      O      0.858260000000     0.083230000000     0.998820000000    -0.382426   
O19      O      0.909300000000     0.986190000000     0.858860000000    -0.378366   
O20      O      0.068830000000     0.983730000000     0.855710000000    -0.379845   
O21      O      0.851350000000     0.994310000000     0.918860000000    -0.375301   
O22      O      0.129450000000     0.983770000000     0.913570000000    -0.371406   
O23      O      0.904710000000     0.861120000000     0.007090000000    -0.364267   
O24      O      0.920240000000     0.139470000000     0.994530000000    -0.374571   
O25      O      0.079400000000     0.129750000000     0.980470000000    -0.368944   
O26      O      0.063960000000     0.852630000000     0.008830000000    -0.37574    
O27      O      0.980860000000     0.905640000000     0.863990000000    -0.375717   
O28      O      0.994490000000     0.064460000000     0.850480000000    -0.376404   
O29      O      0.042990000000     0.038390000000     0.941990000000    -0.507136   
O30      O      0.939400000000     0.945490000000     0.951660000000    -0.510488   
O31      O      0.943370000000     0.044990000000     0.942670000000    -0.651837   
O32      O      0.038180000000     0.938790000000     0.948940000000    -0.651443   
O33      O      0.980550000000     0.365580000000     0.402020000000    -0.377208   
O34      O      0.009340000000     0.641790000000     0.427420000000    -0.376592   
O35      O      0.912790000000     0.517050000000     0.357590000000    -0.372138   
O36      O      0.072120000000     0.507200000000     0.353910000000    -0.376463   
O37      O      0.131970000000     0.497330000000     0.411780000000    -0.371655   
O38      O      0.855230000000     0.519660000000     0.418460000000    -0.376888   
O39      O      0.000860000000     0.588350000000     0.363220000000    -0.376605   
O40      O      0.983000000000     0.429750000000     0.347970000000    -0.373776   
O41      O      0.047690000000     0.544830000000     0.448490000000    -0.510106   
O42      O      0.940400000000     0.456310000000     0.441950000000    -0.507769   
O43      O      0.949450000000     0.555350000000     0.450510000000    -0.652412   
O44      O      0.039310000000     0.446510000000     0.438190000000    -0.653148   
O45      O      0.013620000000     0.626150000000     0.586800000000    -0.373278   
O46      O      0.981610000000     0.350300000000     0.561430000000    -0.373759   
O47      O      0.864860000000     0.588820000000     0.507930000000    -0.379529   
O48      O      0.141480000000     0.562000000000     0.496890000000    -0.375449   
O49      O      0.125970000000     0.403590000000     0.481690000000    -0.369647   
O50      O      0.848900000000     0.431050000000     0.482270000000    -0.373476   
O51      O      0.917160000000     0.489590000000     0.634850000000    -0.375496   
O52      O      0.076130000000     0.472420000000     0.630690000000    -0.376759   
O53      O      0.857310000000     0.499610000000     0.577010000000    -0.377975   
O54      O      0.134040000000     0.471550000000     0.570080000000    -0.375918   
O55      O      0.929390000000     0.642080000000     0.512790000000    -0.374673   
O56      O      0.902830000000     0.367120000000     0.475790000000    -0.370208   
O57      O      0.061600000000     0.350030000000     0.478620000000    -0.378366   
O58      O      0.088260000000     0.626520000000     0.503070000000    -0.371423   
O59      O      0.007300000000     0.562450000000     0.641130000000    -0.377163   
O60      O      0.989800000000     0.403960000000     0.625490000000    -0.377499   
O61      O      0.040460000000     0.437580000000     0.538280000000    -0.509033   
O62      O      0.950930000000     0.545950000000     0.549920000000    -0.50722    
O63      O      0.941460000000     0.446680000000     0.540380000000    -0.651995   
O64      O      0.050310000000     0.536030000000     0.547290000000    -0.654152   
O65      O      0.635510000000     0.003730000000     0.416590000000    -0.381831   
O66      O      0.359400000000     0.972290000000     0.413130000000    -0.378858   
O67      O      0.507820000000     0.905710000000     0.361850000000    -0.369927   
O68      O      0.491260000000     0.064740000000     0.349870000000    -0.371522   
O69      O      0.484910000000     0.128170000000     0.404560000000    -0.38028    
O70      O      0.513330000000     0.850750000000     0.425120000000    -0.37689    
O71      O      0.419260000000     0.974390000000     0.354470000000    -0.376438   
O72      O      0.577910000000     0.993040000000     0.356640000000    -0.364669   
O73      O      0.441880000000     0.036190000000     0.440300000000    -0.510034   
O74      O      0.550810000000     0.946860000000     0.449170000000    -0.508387   
O75      O      0.452590000000     0.936720000000     0.448140000000    -0.654056   
O76      O      0.541270000000     0.046270000000     0.442030000000    -0.652681   
O77      O      0.357030000000     0.979840000000     0.572580000000    -0.372304   
O78      O      0.631900000000     0.018680000000     0.575570000000    -0.37122    
O79      O      0.430240000000     0.848340000000     0.507550000000    -0.379928   
O80      O      0.401910000000     0.124880000000     0.483210000000    -0.377893   
O81      O      0.560760000000     0.142000000000     0.493780000000    -0.37502    
O82      O      0.589330000000     0.864480000000     0.504030000000    -0.375391   
O83      O      0.506500000000     0.925630000000     0.640220000000    -0.374544   
O84      O      0.484190000000     0.083880000000     0.627930000000    -0.376079   
O85      O      0.512680000000     0.862730000000     0.584940000000    -0.379306   
O86      O      0.478260000000     0.138810000000     0.564660000000    -0.373609   
O87      O      0.365830000000     0.901520000000     0.500620000000    -0.371623   
O88      O      0.642450000000     0.929210000000     0.500180000000    -0.376317   
O89      O      0.624900000000     0.088170000000     0.497240000000    -0.37696    
O90      O      0.348710000000     0.060280000000     0.488720000000    -0.377773   
O91      O      0.413870000000     0.990430000000     0.633280000000    -0.376662   
O92      O      0.571630000000     0.019710000000     0.633840000000    -0.369298   
O93      O      0.538220000000     0.051800000000     0.540720000000    -0.506917   
O94      O      0.450490000000     0.943890000000     0.547110000000    -0.507103   
O95      O      0.549600000000     0.953760000000     0.549010000000    -0.653713   
O96      O      0.440050000000     0.042700000000     0.540480000000    -0.650772   
O97      O      0.420850000000     0.350760000000     0.985410000000    -0.376075   
O98      O      0.402960000000     0.628210000000     0.004220000000    -0.376486   
O99      O      0.352740000000     0.473370000000     0.071700000000    -0.378954   
O100     O      0.354290000000     0.493530000000     0.912760000000    -0.377991   
O101     O      0.414160000000     0.502730000000     0.854820000000    -0.377743   
O102     O      0.411280000000     0.471240000000     0.131680000000    -0.370817   
O103     O      0.347880000000     0.565370000000     0.997420000000    -0.37965    
O104     O      0.357990000000     0.406150000000     0.986290000000    -0.376788   
O105     O      0.440230000000     0.544530000000     0.949190000000    -0.510648   
O106     O      0.445240000000     0.438400000000     0.039690000000    -0.509542   
O107     O      0.437970000000     0.536830000000     0.048540000000    -0.650132   
O108     O      0.445820000000     0.445720000000     0.940150000000    -0.651672   
O109     O      0.562010000000     0.638540000000     0.011320000000    -0.37767    
O110     O      0.579900000000     0.362700000000     0.976910000000    -0.373985   
O111     O      0.484180000000     0.562520000000     0.141420000000    -0.376447   
O112     O      0.481710000000     0.585120000000     0.863610000000    -0.375934   
O113     O      0.501110000000     0.426270000000     0.849740000000    -0.379968   
O114     O      0.494350000000     0.403420000000     0.127670000000    -0.369716   
O115     O      0.630130000000     0.495060000000     0.076880000000    -0.374355   
O116     O      0.631210000000     0.514790000000     0.918360000000    -0.374097   
O117     O      0.570530000000     0.486690000000     0.135240000000    -0.379817   
O118     O      0.573420000000     0.513560000000     0.857650000000    -0.378936   
O119     O      0.482020000000     0.626180000000     0.086730000000    -0.380465   
O120     O      0.498680000000     0.349020000000     0.063860000000    -0.375144   
O121     O      0.500710000000     0.362550000000     0.904400000000    -0.374587   
O122     O      0.478430000000     0.639980000000     0.927110000000    -0.375406   
O123     O      0.624890000000     0.583250000000     0.007880000000    -0.372204   
O124     O      0.635350000000     0.425470000000     0.981340000000    -0.371096   
O125     O      0.544780000000     0.452740000000     0.942910000000    -0.510735   
O126     O      0.537490000000     0.543350000000     0.049850000000    -0.512898   
O127     O      0.544580000000     0.443780000000     0.041680000000    -0.652152   
O128     O      0.538720000000     0.552270000000     0.950280000000    -0.65245    
Zr1      Zr     0.994240000000     0.003780000000     0.094610000000     1.43359    
Zr2      Zr     0.986730000000     0.897000000000     0.003990000000     1.43978    
Zr3      Zr     0.997370000000     0.094650000000     0.987860000000     1.43524    
Zr4      Zr     0.893650000000     0.001200000000     0.997610000000     1.43712    
Zr5      Zr     0.090760000000     0.989830000000     0.994150000000     1.43217    
Zr6      Zr     0.989900000000     0.988240000000     0.897430000000     1.43049    
Zr7      Zr     0.993020000000     0.505320000000     0.395610000000     1.43329    
Zr8      Zr     0.004700000000     0.594400000000     0.503590000000     1.43594    
Zr9      Zr     0.986070000000     0.397930000000     0.485230000000     1.43323    
Zr10     Zr     0.896620000000     0.505740000000     0.496720000000     1.42868    
Zr11     Zr     0.093320000000     0.486560000000     0.491740000000     1.43789    
Zr12     Zr     0.996360000000     0.487130000000     0.593010000000     1.42783    
Zr13     Zr     0.497600000000     0.988080000000     0.395880000000     1.43371    
Zr14     Zr     0.397610000000     0.984880000000     0.493190000000     1.4297     
Zr15     Zr     0.593760000000     0.004520000000     0.495810000000     1.43726    
Zr16     Zr     0.505890000000     0.896330000000     0.502110000000     1.43023    
Zr17     Zr     0.485460000000     0.093410000000     0.487550000000     1.42635    
Zr18     Zr     0.493660000000     0.001480000000     0.593810000000     1.43365    
Zr19     Zr     0.393250000000     0.488190000000     0.993270000000     1.43218    
Zr20     Zr     0.485150000000     0.593200000000     0.003590000000     1.43043    
Zr21     Zr     0.497930000000     0.396190000000     0.987280000000     1.43438    
Zr22     Zr     0.490990000000     0.486370000000     0.094050000000     1.433      
Zr23     Zr     0.493260000000     0.502730000000     0.896400000000     1.4316     
Zr24     Zr     0.590290000000     0.501410000000     0.996810000000     1.4352     


