data_structure

_audit_creation_method RASPA-1.0
_audit_creation_date 2023-5-25
_audit_author_name 'Poobodin Mano'

_cell_length_a    27.2181
_cell_length_b    27.0645
_cell_length_c    27.2448
_cell_angle_alpha 90
_cell_angle_beta  90
_cell_angle_gamma 90
_cell_volume      20069.7

_symmetry_cell_setting          triclinic
_symmetry_space_group_name_Hall 'P 1'
_symmetry_space_group_name_H-M  'P 1'
_symmetry_Int_Tables_number     1

_symmetry_equiv_pos_as_xyz 'x,y,z'

loop_
_atom_site_label
_atom_site_type_symbol
_atom_site_fract_x
_atom_site_fract_y
_atom_site_fract_z
_atom_site_charge
C1       C      0.984750000000     0.114760000000     0.127800000000     0.395613   
C2       C      0.988270000000     0.863440000000     0.109460000000     0.393184   
C3       C      0.861230000000     0.992800000000     0.109150000000     0.392862   
C4       C      0.111310000000     0.986690000000     0.127890000000     0.394375   
C5       C      0.005950000000     0.882040000000     0.860320000000     0.393744   
C6       C      0.006850000000     0.133430000000     0.878280000000     0.395102   
C7       C      0.871610000000     0.874680000000     0.967230000000     0.395629   
C8       C      0.120810000000     0.872480000000     0.996910000000     0.395352   
C9       C      0.121360000000     0.124630000000     0.008370000000     0.394063   
C10      C      0.870550000000     0.125440000000     0.994390000000     0.391817   
C11      C      0.880810000000     0.009000000000     0.859510000000     0.394863   
C12      C      0.130750000000     0.005860000000     0.878800000000     0.394665   
C13      C      0.993540000000     0.360750000000     0.378090000000     0.394548   
C14      C      0.984680000000     0.611970000000     0.360350000000     0.393766   
C15      C      0.864250000000     0.481600000000     0.373360000000     0.391987   
C16      C      0.114670000000     0.483590000000     0.366350000000     0.396794   
C17      C      0.989250000000     0.630010000000     0.610280000000     0.394232   
C18      C      0.002060000000     0.378820000000     0.628190000000     0.396398   
C19      C      0.863770000000     0.616940000000     0.490580000000     0.392473   
C20      C      0.114350000000     0.625080000000     0.478270000000     0.393317   
C21      C      0.123760000000     0.374430000000     0.502910000000     0.395397   
C22      C      0.872730000000     0.364930000000     0.503670000000     0.393068   
C23      C      0.872770000000     0.495010000000     0.623490000000     0.396688   
C24      C      0.122940000000     0.505840000000     0.615740000000     0.39301    
C25      C      0.611800000000     0.988670000000     0.360280000000     0.394616   
C26      C      0.630360000000     0.995320000000     0.610120000000     0.39346    
C27      C      0.626070000000     0.119570000000     0.483140000000     0.393251   
C28      C      0.616430000000     0.867420000000     0.488880000000     0.3945     
C29      C      0.380490000000     0.009900000000     0.628170000000     0.394179   
C30      C      0.361710000000     0.998650000000     0.378530000000     0.392327   
C31      C      0.506580000000     0.128600000000     0.615440000000     0.393753   
C32      C      0.502370000000     0.876480000000     0.623650000000     0.39258    
C33      C      0.482850000000     0.868510000000     0.373460000000     0.393782   
C34      C      0.494340000000     0.120490000000     0.364810000000     0.391962   
C35      C      0.375480000000     0.129220000000     0.500490000000     0.392711   
C36      C      0.366210000000     0.877390000000     0.506860000000     0.395263   
C37      C      0.368530000000     0.373010000000     0.989790000000     0.390197   
C38      C      0.619720000000     0.373490000000     0.995610000000     0.392996   
C39      C      0.499460000000     0.377810000000     0.865060000000     0.390665   
C40      C      0.491150000000     0.369190000000     0.115860000000     0.394255   
C41      C      0.619190000000     0.625310000000     0.007930000000     0.395149   
C42      C      0.368440000000     0.625450000000     0.995450000000     0.392901   
C43      C      0.622080000000     0.519200000000     0.875620000000     0.398631   
C44      C      0.615290000000     0.494160000000     0.124540000000     0.394773   
C45      C      0.365560000000     0.510130000000     0.114940000000     0.399877   
C46      C      0.372190000000     0.502930000000     0.865160000000     0.390896   
C47      C      0.498650000000     0.629710000000     0.873700000000     0.393651   
C48      C      0.488550000000     0.621280000000     0.124510000000     0.392754   
C49      C      0.498800000000     0.139760000000     0.275780000000     0.00955102 
C50      C      0.488120000000     0.344140000000     0.203350000000     0.0128913  
C51      C      0.487200000000     0.279520000000     0.134650000000     0.0559889  
C52      C      0.520040000000     0.309160000000     0.233720000000    -0.104668   
C53      C      0.467570000000     0.172700000000     0.242240000000    -0.100691   
C54      C      0.516560000000     0.244730000000     0.168410000000    -0.115861   
C55      C      0.479500000000     0.226360000000     0.252760000000     0.0167755  
C56      C      0.505750000000     0.256510000000     0.221720000000     0.0251621  
C57      C      0.499190000000     0.208490000000     0.339620000000     0.00991164 
C58      C      0.467030000000     0.239480000000     0.305340000000    -0.100769   
C59      C      0.481540000000     0.640060000000     0.213390000000     0.0106245  
C60      C      0.481650000000     0.843960000000     0.285920000000     0.0118606  
C61      C      0.486260000000     0.779070000000     0.354540000000     0.0557131  
C62      C      0.451850000000     0.807140000000     0.255500000000    -0.104155   
C63      C      0.511130000000     0.673650000000     0.247710000000    -0.101778   
C64      C      0.458120000000     0.743230000000     0.320910000000    -0.115523   
C65      C      0.497450000000     0.726880000000     0.237330000000     0.0181943  
C66      C      0.468780000000     0.755390000000     0.267720000000     0.024831   
C67      C      0.480890000000     0.709080000000     0.149750000000     0.0104616  
C68      C      0.510790000000     0.741000000000     0.185240000000    -0.101462   
C69      C      0.512720000000     0.857540000000     0.712210000000     0.00992267 
C70      C      0.497140000000     0.654600000000     0.786130000000     0.012887   
C71      C      0.497110000000     0.719300000000     0.854800000000     0.056513   
C72      C      0.529570000000     0.689050000000     0.755690000000    -0.103967   
C73      C      0.481300000000     0.826910000000     0.747590000000    -0.101197   
C74      C      0.527750000000     0.753200000000     0.821340000000    -0.11435    
C75      C      0.490290000000     0.772600000000     0.737510000000     0.0195205  
C76      C      0.516520000000     0.741930000000     0.768010000000     0.0257726  
C77      C      0.506360000000     0.788440000000     0.649280000000     0.0101187  
C78      C      0.475010000000     0.759080000000     0.685730000000    -0.101329   
C79      C      0.505160000000     0.289830000000     0.839800000000     0.0102146  
C80      C      0.501560000000     0.217820000000     0.635090000000     0.0120925  
C81      C      0.506140000000     0.152540000000     0.703180000000     0.0561319  
C82      C      0.530250000000     0.253350000000     0.668210000000    -0.104846   
C83      C      0.475510000000     0.259090000000     0.803090000000    -0.100884   
C84      C      0.533870000000     0.190310000000     0.734840000000    -0.115645   
C85      C      0.491160000000     0.272630000000     0.751430000000     0.0170762  
C86      C      0.518260000000     0.242250000000     0.721350000000     0.0245288  
C87      C      0.509620000000     0.358830000000     0.776490000000     0.00991463 
C88      C      0.480340000000     0.326490000000     0.740700000000    -0.100993   
C89      C      0.853790000000     0.275550000000     0.499820000000     0.0101093  
C90      C      0.651380000000     0.207230000000     0.486320000000     0.0126301  
C91      C      0.715210000000     0.136970000000     0.487100000000     0.0557544  
C92      C      0.689320000000     0.239520000000     0.460220000000    -0.104989   
C93      C      0.818770000000     0.240050000000     0.526250000000    -0.101487   
C94      C      0.751940000000     0.172740000000     0.463050000000    -0.115934   
C95      C      0.766670000000     0.252160000000     0.511240000000     0.0182909  
C96      C      0.739880000000     0.225140000000     0.478010000000     0.0257404  
C97      C      0.785220000000     0.340600000000     0.500440000000     0.010482   
C98      C      0.752870000000     0.303540000000     0.527830000000    -0.101449   
C99      C      0.838550000000     0.704970000000     0.485700000000     0.0103252  
C100     C      0.634760000000     0.777900000000     0.482760000000     0.0120887  
C101     C      0.703420000000     0.842280000000     0.478890000000     0.056398   
C102     C      0.669380000000     0.743250000000     0.510660000000    -0.104652   
C103     C      0.802110000000     0.731170000000     0.451770000000    -0.101028   
C104     C      0.736960000000     0.805720000000     0.505980000000    -0.11577    
C105     C      0.750490000000     0.720010000000     0.469260000000     0.0169236  
C106     C      0.721810000000     0.753040000000     0.494730000000     0.0252837  
C107     C      0.775090000000     0.637000000000     0.498700000000     0.00960574 
C108     C      0.739580000000     0.665250000000     0.465190000000    -0.100815   
C109     C      0.287840000000     0.153760000000     0.505680000000     0.0106085  
C110     C      0.212870000000     0.356860000000     0.510690000000     0.0122788  
C111     C      0.149700000000     0.287150000000     0.513370000000     0.056342   
C112     C      0.247530000000     0.323260000000     0.481650000000    -0.104086   
C113     C      0.261050000000     0.189730000000     0.539680000000    -0.101179   
C114     C      0.186320000000     0.254400000000     0.485420000000    -0.114553   
C115     C      0.271570000000     0.241820000000     0.522550000000     0.0195202  
C116     C      0.238590000000     0.270160000000     0.496720000000     0.025672   
C117     C      0.355020000000     0.218430000000     0.494230000000     0.0100218  
C118     C      0.325800000000     0.253620000000     0.527380000000    -0.101524   
C119     C      0.134040000000     0.713090000000     0.460840000000     0.0101718  
C120     C      0.339710000000     0.789610000000     0.509000000000     0.0140317  
C121     C      0.278040000000     0.858630000000     0.521370000000     0.0560676  
C122     C      0.304220000000     0.763860000000     0.474050000000    -0.104288   
C123     C      0.161470000000     0.750540000000     0.493140000000    -0.0999758  
C124     C      0.240170000000     0.830150000000     0.490170000000    -0.11543    
C125     C      0.216280000000     0.739420000000     0.494310000000     0.0147987  
C126     C      0.251530000000     0.775170000000     0.488410000000     0.0233215  
C127     C      0.201780000000     0.651050000000     0.472160000000     0.011027   
C128     C      0.228160000000     0.686110000000     0.507250000000    -0.100124   
C129     C      0.775370000000     0.473250000000     0.353670000000     0.00972175 
C130     C      0.702870000000     0.494220000000     0.149820000000     0.0124078  
C131     C      0.634010000000     0.497000000000     0.213630000000     0.0558543  
C132     C      0.732090000000     0.460740000000     0.184340000000    -0.104227   
C133     C      0.742360000000     0.506730000000     0.322420000000    -0.100589   
C134     C      0.666280000000     0.465640000000     0.248010000000    -0.115501   
C135     C      0.752620000000     0.497020000000     0.268490000000     0.0164551  
C136     C      0.720210000000     0.474330000000     0.236960000000     0.0245679  
C137     C      0.839150000000     0.474120000000     0.285880000000     0.00996785 
C138     C      0.805760000000     0.508250000000     0.255930000000    -0.100615   
C139     C      0.279240000000     0.532300000000     0.134140000000     0.0132596  
C140     C      0.200840000000     0.465980000000     0.343160000000     0.0155467  
C141     C      0.134440000000     0.465830000000     0.279300000000     0.0578173  
C142     C      0.234530000000     0.497400000000     0.311350000000    -0.103029   
C143     C      0.243350000000     0.504430000000     0.167170000000    -0.0994969  
C144     C      0.166950000000     0.495170000000     0.243660000000    -0.114792   
C145     C      0.256560000000     0.505680000000     0.221750000000     0.0145096  
C146     C      0.221520000000     0.495840000000     0.256870000000     0.0222431  
C147     C      0.342740000000     0.535730000000     0.199180000000     0.0135124  
C148     C      0.311010000000     0.507210000000     0.235480000000    -0.0995368  
C149     C      0.352860000000     0.511200000000     0.776480000000     0.00978395 
C150     C      0.147930000000     0.504620000000     0.703270000000     0.0119451  
C151     C      0.212010000000     0.502240000000     0.634440000000     0.0553146  
C152     C      0.184070000000     0.534880000000     0.734090000000    -0.104296   
C153     C      0.319940000000     0.481830000000     0.741300000000    -0.100691   
C154     C      0.247360000000     0.530950000000     0.668060000000    -0.115698   
C155     C      0.266540000000     0.493500000000     0.752180000000     0.0170933  
C156     C      0.236070000000     0.519710000000     0.721390000000     0.0242599  
C157     C      0.284600000000     0.508600000000     0.840260000000     0.0101107  
C158     C      0.253290000000     0.478750000000     0.804180000000    -0.100792   
C159     C      0.707490000000     0.545890000000     0.858150000000     0.0127224  
C160     C      0.786540000000     0.481830000000     0.649280000000     0.015248   
C161     C      0.853970000000     0.486870000000     0.712150000000     0.0573231  
C162     C      0.753770000000     0.516180000000     0.679080000000    -0.103452   
C163     C      0.745400000000     0.523100000000     0.823420000000    -0.0991734  
C164     C      0.821680000000     0.519030000000     0.745530000000    -0.115092   
C165     C      0.731730000000     0.524750000000     0.768960000000     0.014468   
C166     C      0.766910000000     0.516630000000     0.733520000000     0.0222997  
C167     C      0.644320000000     0.549710000000     0.792860000000     0.0136136  
C168     C      0.677280000000     0.524450000000     0.755340000000    -0.0994597  
C169     C      0.849960000000     0.788460000000     0.944490000000     0.0127339  
C170     C      0.642120000000     0.713190000000     0.020470000000     0.0153917  
C171     C      0.706590000000     0.646950000000     0.022470000000     0.0579915  
C172     C      0.673530000000     0.745820000000     0.987160000000    -0.103895   
C173     C      0.817750000000     0.753440000000     0.974510000000    -0.0995994  
C174     C      0.740930000000     0.677750000000     0.989900000000    -0.115536   
C175     C      0.763230000000     0.767300000000     0.975230000000     0.0139337  
C176     C      0.728110000000     0.732660000000     0.987490000000     0.0221801  
C177     C      0.786100000000     0.853560000000     0.943000000000     0.0126859  
C178     C      0.750070000000     0.822230000000     0.972740000000    -0.0996074  
C179     C      0.782250000000     0.147480000000     0.988080000000     0.00981483 
C180     C      0.707670000000     0.351110000000     0.004230000000     0.0137702  
C181     C      0.641220000000     0.284480000000     0.997940000000     0.0554815  
C182     C      0.742170000000     0.317720000000     0.974780000000    -0.105398   
C183     C      0.748960000000     0.178850000000     0.020990000000    -0.100474   
C184     C      0.678180000000     0.251840000000     0.970160000000    -0.115663   
C185     C      0.760240000000     0.232870000000     0.011870000000     0.0173539  
C186     C      0.730190000000     0.264240000000     0.985850000000     0.0241691  
C187     C      0.847800000000     0.214390000000     0.994120000000     0.0087324  
C188     C      0.812730000000     0.244690000000     0.026300000000    -0.100041   
C189     C      0.280110000000     0.647700000000     0.990360000000     0.00968986 
C190     C      0.208360000000     0.849790000000     0.007750000000     0.0140669  
C191     C      0.141970000000     0.783390000000     0.997960000000     0.055721   
C192     C      0.243290000000     0.817420000000     0.977800000000    -0.105761   
C193     C      0.247570000000     0.678840000000     0.024180000000    -0.100426   
C194     C      0.179600000000     0.751570000000     0.970220000000    -0.115937   
C195     C      0.259460000000     0.732780000000     0.015610000000     0.0177843  
C196     C      0.231040000000     0.763810000000     0.987590000000     0.0249602  
C197     C      0.346120000000     0.714390000000     0.996410000000     0.00883532 
C198     C      0.311970000000     0.743860000000     0.030150000000    -0.100134   
C199     C      0.280450000000     0.350890000000     0.996270000000     0.00910807 
C200     C      0.209600000000     0.146460000000     0.004970000000     0.0131155  
C201     C      0.142710000000     0.213520000000     0.006450000000     0.0556653  
C202     C      0.243730000000     0.182260000000     0.032000000000    -0.104919   
C203     C      0.246460000000     0.314610000000     0.969680000000    -0.100497   
C204     C      0.179610000000     0.247650000000     0.032390000000    -0.115261   
C205     C      0.259360000000     0.262570000000     0.985360000000     0.0189808  
C206     C      0.231290000000     0.234480000000     0.016710000000     0.0270905  
C207     C      0.347060000000     0.284280000000     0.996460000000     0.00848575 
C208     C      0.311230000000     0.249700000000     0.970000000000    -0.100554   
C209     C      0.719340000000     0.983030000000     0.626390000000     0.0102167  
C210     C      0.794570000000     0.013030000000     0.830340000000     0.0144801  
C211     C      0.865870000000     0.022880000000     0.770690000000     0.0562262  
C212     C      0.768140000000     0.980920000000     0.792730000000    -0.104919   
C213     C      0.757220000000     0.015530000000     0.652960000000    -0.101103   
C214     C      0.836370000000     0.994540000000     0.731370000000    -0.116594   
C215     C      0.747930000000     0.014200000000     0.707860000000     0.0163667  
C216     C      0.781630000000     0.997670000000     0.741450000000     0.0240009  
C217     C      0.659510000000     0.994950000000     0.696520000000     0.0103037  
C218     C      0.696140000000     0.029680000000     0.721200000000    -0.100299   
C219     C      0.294100000000     0.015650000000     0.656940000000     0.0118112  
C220     C      0.219490000000     0.994490000000     0.862480000000     0.0120321  
C221     C      0.158510000000     0.007750000000     0.792360000000     0.0576809  
C222     C      0.259050000000     0.021930000000     0.833020000000    -0.104904   
C223     C      0.267520000000     0.982580000000     0.693750000000    -0.10161    
C224     C      0.198470000000     0.036150000000     0.764660000000    -0.116413   
C225     C      0.281570000000     0.997820000000     0.745420000000     0.015929   
C226     C      0.248960000000     0.017330000000     0.778540000000     0.0254912  
C227     C      0.364590000000     0.024420000000     0.716820000000     0.00999846 
C228     C      0.336390000000     0.993430000000     0.754720000000    -0.101203   
C229     C      0.332920000000     0.996820000000     0.292060000000     0.0108685  
C230     C      0.127270000000     0.968220000000     0.215640000000     0.0125694  
C231     C      0.197800000000     0.981430000000     0.155720000000     0.0567803  
C232     C      0.156940000000     0.993740000000     0.256380000000    -0.104423   
C233     C      0.297530000000     0.960460000000     0.267960000000    -0.100517   
C234     C      0.225920000000     0.008930000000     0.195900000000    -0.114578   
C235     C      0.245260000000     0.974870000000     0.280520000000     0.0170308  
C236     C      0.211610000000     0.990180000000     0.246320000000     0.0255397  
C237     C      0.272430000000     0.008290000000     0.361700000000     0.0103383  
C238     C      0.235490000000     0.974430000000     0.335370000000    -0.101021   
C239     C      0.772070000000     0.002580000000     0.125610000000     0.010531   
C240     C      0.697940000000     0.982250000000     0.331230000000     0.0128358  
C241     C      0.626310000000     0.973000000000     0.271810000000     0.0557999  
C242     C      0.725780000000     0.011450000000     0.292210000000    -0.103867   
C243     C      0.734440000000     0.971010000000     0.153580000000    -0.101115   
C244     C      0.656790000000     0.998880000000     0.231640000000    -0.116412   
C245     C      0.744140000000     0.974370000000     0.208330000000     0.0161716  
C246     C      0.711370000000     0.993460000000     0.241560000000     0.0243043  
C247     C      0.832600000000     0.992200000000     0.195630000000     0.00996444 
C248     C      0.795820000000     0.958520000000     0.221510000000    -0.100406   
C249     C      0.012000000000     0.160600000000     0.791520000000     0.0122141  
C250     C      0.996740000000     0.362940000000     0.717550000000     0.00965728 
C251     C      0.004070000000     0.291810000000     0.655800000000     0.0580259  
C252     C      0.026900000000     0.332730000000     0.754350000000    -0.104002   
C253     C      0.977920000000     0.195550000000     0.763720000000    -0.102424   
C254     C      0.033860000000     0.263320000000     0.694270000000    -0.116737   
C255     C      0.992070000000     0.248060000000     0.776480000000     0.0164963  
C256     C      0.017870000000     0.278330000000     0.745350000000     0.0268544  
C257     C      0.016290000000     0.223180000000     0.860900000000     0.010433   
C258     C      0.984190000000     0.258540000000     0.830630000000    -0.101672   
C259     C      0.007390000000     0.794890000000     0.831820000000     0.0140056  
C260     C      0.974090000000     0.718790000000     0.626910000000     0.0111366  
C261     C      0.986860000000     0.657730000000     0.696840000000     0.056413   
C262     C      0.001990000000     0.758650000000     0.655740000000    -0.100681   
C263     C      0.971110000000     0.770820000000     0.796520000000    -0.102767   
C264     C      0.016380000000     0.697120000000     0.724240000000    -0.11218    
C265     C      0.985560000000     0.783340000000     0.744270000000     0.0188258  
C266     C      0.999300000000     0.748580000000     0.710400000000     0.0229312  
C267     C      0.019650000000     0.864780000000     0.771660000000     0.0112456  
C268     C      0.986170000000     0.838600000000     0.734350000000    -0.103263   
C269     C      0.984570000000     0.834730000000     0.195860000000     0.00966542 
C270     C      0.969810000000     0.627320000000     0.271970000000     0.0129572  
C271     C      0.977370000000     0.698760000000     0.332520000000     0.0567078  
C272     C      0.994700000000     0.658690000000     0.232190000000    -0.105961   
C273     C      0.950590000000     0.797170000000     0.220250000000    -0.100556   
C274     C      0.003420000000     0.728850000000     0.292660000000    -0.114482   
C275     C      0.967940000000     0.745500000000     0.207920000000     0.0156348  
C276     C      0.986640000000     0.713220000000     0.241940000000     0.0242905  
C277     C      0.998960000000     0.773980000000     0.126440000000     0.00795031 
C278     C      0.967100000000     0.735570000000     0.153110000000    -0.100076   
C279     C      0.000900000000     0.270880000000     0.361180000000     0.012911   
C280     C      0.980930000000     0.201320000000     0.157640000000     0.0120366  
C281     C      0.970760000000     0.128820000000     0.216650000000     0.0558799  
C282     C      0.011980000000     0.227590000000     0.196310000000    -0.102893   
C283     C      0.966770000000     0.235410000000     0.333460000000    -0.102251   
C284     C      0.999260000000     0.157920000000     0.255980000000    -0.117246   
C285     C      0.971690000000     0.244860000000     0.278810000000     0.0170014  
C286     C      0.994270000000     0.212930000000     0.246940000000     0.0236438  
C287     C      0.993400000000     0.332590000000     0.291370000000     0.00959267 
C288     C      0.958000000000     0.297360000000     0.265560000000    -0.100481   
H1       H      0.919610000000     0.922890000000     0.053080000000     0.207085   
H2       H      0.060700000000     0.063950000000     0.074440000000     0.206935   
H3       H      0.931420000000     0.074980000000     0.923830000000     0.209665   
H4       H      0.071540000000     0.932850000000     0.924740000000     0.210525   
H5       H      0.918470000000     0.558370000000     0.421730000000     0.210606   
H6       H      0.063760000000     0.421830000000     0.427840000000     0.211376   
H7       H      0.928330000000     0.427040000000     0.570970000000     0.211475   
H8       H      0.063550000000     0.573780000000     0.557390000000     0.2074     
H9       H      0.573820000000     0.068610000000     0.557190000000     0.209289   
H10      H      0.558210000000     0.923010000000     0.421850000000     0.212529   
H11      H      0.423470000000     0.069770000000     0.426900000000     0.208107   
H12      H      0.428610000000     0.932780000000     0.572100000000     0.209048   
H13      H      0.567320000000     0.431890000000     0.924190000000     0.205548   
H14      H      0.421130000000     0.427010000000     0.061060000000     0.207028   
H15      H      0.425770000000     0.572770000000     0.924680000000     0.209298   
H16      H      0.561650000000     0.567710000000     0.070290000000     0.212748   
H17      H      0.472140000000     0.160790000000     0.203840000000     0.0429791  
H18      H      0.449350000000     0.340890000000     0.215840000000     0.0270712  
H19      H      0.538120000000     0.220130000000     0.335160000000     0.0292146  
H20      H      0.469720000000     0.279000000000     0.314840000000     0.0413319  
H21      H      0.518580000000     0.319290000000     0.272910000000     0.0424787  
H22      H      0.510880000000     0.206020000000     0.157160000000     0.0486808  
H23      H      0.487240000000     0.100810000000     0.269980000000     0.0347415  
H24      H      0.500260000000     0.382530000000     0.211270000000     0.0341116  
H25      H      0.427900000000     0.229890000000     0.312330000000     0.0486772  
H26      H      0.556350000000     0.251380000000     0.161790000000     0.0544598  
H27      H      0.488220000000     0.216930000000     0.378010000000     0.0337076  
H28      H      0.428130000000     0.166070000000     0.250690000000     0.0489259  
H29      H      0.559100000000     0.315000000000     0.223170000000     0.0512699  
H30      H      0.502090000000     0.274240000000     0.097010000000     0.0308373  
H31      H      0.537850000000     0.142630000000     0.264080000000     0.0294387  
H32      H      0.403110000000     0.264650000000     0.178010000000     0.0343888  
H33      H      0.506310000000     0.661280000000     0.285930000000     0.0439103  
H34      H      0.520340000000     0.843710000000     0.272810000000     0.0307125  
H35      H      0.441480000000     0.719520000000     0.152840000000     0.0288421  
H36      H      0.506730000000     0.780540000000     0.176180000000     0.0423237  
H37      H      0.453030000000     0.817040000000     0.216220000000     0.0428097  
H38      H      0.465110000000     0.704750000000     0.332190000000     0.0476208  
H39      H      0.494130000000     0.601450000000     0.219300000000     0.0360041  
H40      H      0.466680000000     0.881480000000     0.278690000000     0.0352951  
H41      H      0.550450000000     0.733100000000     0.179250000000     0.0502607  
H42      H      0.418120000000     0.748510000000     0.327470000000     0.0513736  
H43      H      0.492890000000     0.718000000000     0.111780000000     0.0343989  
H44      H      0.550900000000     0.668430000000     0.239860000000     0.0520814  
H45      H      0.412470000000     0.810930000000     0.265770000000     0.0502218  
H46      H      0.471580000000     0.773460000000     0.392230000000     0.0281134  
H47      H      0.442160000000     0.641730000000     0.224190000000     0.0284261  
H48      H      0.571820000000     0.771970000000     0.312200000000     0.0361814  
H49      H      0.488280000000     0.839320000000     0.785450000000     0.0434243  
H50      H      0.458440000000     0.658420000000     0.773590000000     0.0291571  
H51      H      0.545010000000     0.775310000000     0.651840000000     0.028726   
H52      H      0.476010000000     0.719290000000     0.676930000000     0.0421143  
H53      H      0.527670000000     0.679330000000     0.716390000000     0.0422404  
H54      H      0.523190000000     0.791980000000     0.832810000000     0.0475704  
H55      H      0.503970000000     0.897160000000     0.718340000000     0.0345733  
H56      H      0.508720000000     0.616020000000     0.778300000000     0.0339404  
H57      H      0.435920000000     0.769830000000     0.680450000000     0.0503307  
H58      H      0.567280000000     0.745210000000     0.828050000000     0.0515418  
H59      H      0.493110000000     0.780010000000     0.611620000000     0.0343719  
H60      H      0.441910000000     0.835350000000     0.740670000000     0.0505599  
H61      H      0.568560000000     0.682310000000     0.765960000000     0.050065   
H62      H      0.511460000000     0.724490000000     0.892660000000     0.0264211  
H63      H      0.552090000000     0.852170000000     0.721760000000     0.0291167  
H64      H      0.409360000000     0.713090000000     0.890850000000     0.037      
H65      H      0.477760000000     0.219460000000     0.812340000000     0.043799   
H66      H      0.461910000000     0.227590000000     0.636740000000     0.0294899  
H67      H      0.549340000000     0.355580000000     0.767450000000     0.0269255  
H68      H      0.487870000000     0.338890000000     0.702950000000     0.0413857  
H69      H      0.523120000000     0.291470000000     0.656020000000     0.0420958  
H70      H      0.531250000000     0.180800000000     0.774170000000     0.047428   
H71      H      0.491480000000     0.281240000000     0.877270000000     0.0350179  
H72      H      0.513840000000     0.224130000000     0.596690000000     0.0333874  
H73      H      0.440480000000     0.333390000000     0.746550000000     0.0499797  
H74      H      0.573730000000     0.186590000000     0.726620000000     0.0507225  
H75      H      0.498850000000     0.397920000000     0.770140000000     0.0342741  
H76      H      0.435970000000     0.268450000000     0.807600000000     0.0510302  
H77      H      0.570220000000     0.247380000000     0.662140000000     0.0486233  
H78      H      0.523780000000     0.116120000000     0.709960000000     0.0270367  
H79      H      0.544280000000     0.278040000000     0.838080000000     0.0268708  
H80      H      0.418870000000     0.190320000000     0.715140000000     0.0351758  
H81      H      0.830380000000     0.201530000000     0.519960000000     0.0439981  
H82      H      0.650040000000     0.217740000000     0.525760000000     0.0272671  
H83      H      0.774620000000     0.340760000000     0.461010000000     0.0299232  
H84      H      0.713600000000     0.313050000000     0.523970000000     0.0414459  
H85      H      0.680050000000     0.279050000000     0.464140000000     0.0426217  
H86      H      0.790020000000     0.160670000000     0.470070000000     0.0482351  
H87      H      0.891320000000     0.269460000000     0.514770000000     0.036054   
H88      H      0.614750000000     0.215750000000     0.470340000000     0.0337754  
H89      H      0.760350000000     0.307090000000     0.567830000000     0.0490081  
H90      H      0.747830000000     0.169700000000     0.422540000000     0.0519137  
H91      H      0.777140000000     0.377970000000     0.515340000000     0.0338815  
H92      H      0.822660000000     0.245700000000     0.566510000000     0.0506514  
H93      H      0.686800000000     0.232340000000     0.420100000000     0.05043    
H94      H      0.720390000000     0.100550000000     0.468920000000     0.0285502  
H95      H      0.854870000000     0.265630000000     0.460220000000     0.0299799  
H96      H      0.720430000000     0.170530000000     0.576530000000     0.0342978  
H97      H      0.811210000000     0.770740000000     0.448090000000     0.0445674  
H98      H      0.634130000000     0.766690000000     0.443510000000     0.0305188  
H99      H      0.765710000000     0.645480000000     0.537530000000     0.0291043  
H100     H      0.701600000000     0.654030000000     0.473580000000     0.0415677  
H101     H      0.656220000000     0.705100000000     0.505700000000     0.0429127  
H102     H      0.775970000000     0.814720000000     0.499420000000     0.0482623  
H103     H      0.876180000000     0.711750000000     0.471370000000     0.0364979  
H104     H      0.597060000000     0.772230000000     0.497380000000     0.0358756  
H105     H      0.745880000000     0.653220000000     0.426650000000     0.0488791  
H106     H      0.732130000000     0.811810000000     0.546070000000     0.0530283  
H107     H      0.768790000000     0.596830000000     0.493150000000     0.0343005  
H108     H      0.806760000000     0.716080000000     0.414060000000     0.0515557  
H109     H      0.666100000000     0.750940000000     0.550620000000     0.0507819  
H110     H      0.712310000000     0.879580000000     0.493510000000     0.028745   
H111     H      0.836370000000     0.721960000000     0.522820000000     0.0292795  
H112     H      0.709860000000     0.798090000000     0.394020000000     0.0352378  
H113     H      0.221790000000     0.180010000000     0.542960000000     0.0443826  
H114     H      0.223980000000     0.356040000000     0.549960000000     0.0347054  
H115     H      0.347510000000     0.228200000000     0.455290000000     0.0267586  
H116     H      0.336450000000     0.292010000000     0.519230000000     0.0419434  
H117     H      0.285370000000     0.336870000000     0.486350000000     0.0426602  
H118     H      0.177990000000     0.214900000000     0.491240000000     0.0471705  
H119     H      0.281350000000     0.115740000000     0.519630000000     0.0353949  
H120     H      0.218310000000     0.395310000000     0.497480000000     0.0357765  
H121     H      0.337290000000     0.247400000000     0.566070000000     0.0508024  
H122     H      0.179960000000     0.259970000000     0.445460000000     0.0512966  
H123     H      0.394770000000     0.224980000000     0.500890000000     0.0344967  
H124     H      0.275830000000     0.185000000000     0.577460000000     0.0524225  
H125     H      0.239320000000     0.327290000000     0.441860000000     0.0492691  
H126     H      0.112520000000     0.277890000000     0.499190000000     0.0256021  
H127     H      0.271270000000     0.156070000000     0.468420000000     0.0270612  
H128     H      0.105810000000     0.251610000000     0.590210000000     0.0311484  
H129     H      0.152800000000     0.787210000000     0.477360000000     0.0417541  
H130     H      0.335250000000     0.773540000000     0.546300000000     0.026983   
H131     H      0.216570000000     0.656760000000     0.434520000000     0.0278779  
H132     H      0.267560000000     0.676650000000     0.508500000000     0.0414147  
H133     H      0.313760000000     0.724330000000     0.471590000000     0.0426727  
H134     H      0.203530000000     0.838690000000     0.505700000000     0.0478239  
H135     H      0.093940000000     0.719530000000     0.464940000000     0.0350392  
H136     H      0.377760000000     0.781370000000     0.496710000000     0.0340761  
H137     H      0.214420000000     0.679040000000     0.545050000000     0.0497285  
H138     H      0.240810000000     0.844730000000     0.452020000000     0.0520805  
H139     H      0.210340000000     0.612480000000     0.483200000000     0.03381    
H140     H      0.146740000000     0.749170000000     0.531170000000     0.0487606  
H141     H      0.310410000000     0.778650000000     0.436470000000     0.0525707  
H142     H      0.272060000000     0.898470000000     0.513500000000     0.0285444  
H143     H      0.143450000000     0.720770000000     0.421840000000     0.0280602  
H144     H      0.256270000000     0.802000000000     0.595720000000     0.0335511  
H145     H      0.703990000000     0.502020000000     0.334320000000     0.0424455  
H146     H      0.716530000000     0.532750000000     0.153630000000     0.0299768  
H147     H      0.833060000000     0.435380000000     0.273680000000     0.0284728  
H148     H      0.815400000000     0.506330000000     0.216670000000     0.0418127  
H149     H      0.771360000000     0.461310000000     0.174430000000     0.0426903  
H150     H      0.654700000000     0.471630000000     0.286300000000     0.0474653  
H151     H      0.769200000000     0.482470000000     0.392930000000     0.0343979  
H152     H      0.710600000000     0.482300000000     0.111550000000     0.0353481  
H153     H      0.813840000000     0.547100000000     0.266560000000     0.0494628  
H154     H      0.658040000000     0.426010000000     0.240910000000     0.0517957  
H155     H      0.877930000000     0.483730000000     0.277440000000     0.0343428  
H156     H      0.751480000000     0.545900000000     0.330750000000     0.0493268  
H157     H      0.720480000000     0.421880000000     0.177820000000     0.0509754  
H158     H      0.595680000000     0.483780000000     0.218700000000     0.0282777  
H159     H      0.763570000000     0.434280000000     0.348250000000     0.0284823  
H160     H      0.681460000000     0.579020000000     0.230310000000     0.0354171  
H161     H      0.207180000000     0.521950000000     0.160150000000     0.0413843  
H162     H      0.209880000000     0.426410000000     0.336920000000     0.0261276  
H163     H      0.335660000000     0.575920000000     0.204270000000     0.0269745  
H164     H      0.317010000000     0.526060000000     0.271140000000     0.0412513  
H165     H      0.271870000000     0.482790000000     0.318670000000     0.0418678  
H166     H      0.160140000000     0.479380000000     0.206720000000     0.0474336  
H167     H      0.271360000000     0.522320000000     0.095370000000     0.034065   
H168     H      0.209460000000     0.473850000000     0.382250000000     0.0334503  
H169     H      0.324840000000     0.468670000000     0.238280000000     0.0490877  
H170     H      0.153970000000     0.534120000000     0.243040000000     0.0528545  
H171     H      0.382000000000     0.529220000000     0.208370000000     0.0347208  
H172     H      0.241600000000     0.465200000000     0.155200000000     0.0487212  
H173     H      0.232930000000     0.536410000000     0.324050000000     0.05137    
H174     H      0.096030000000     0.477670000000     0.272000000000     0.0282162  
H175     H      0.272180000000     0.572630000000     0.138070000000     0.0268864  
H176     H      0.183220000000     0.387320000000     0.252600000000     0.0328081  
H177     H      0.332130000000     0.488710000000     0.703370000000     0.0425365  
H178     H      0.149340000000     0.465460000000     0.715540000000     0.0297926  
H179     H      0.273370000000     0.548060000000     0.838190000000     0.0273257  
H180     H      0.214050000000     0.481840000000     0.813790000000     0.0417714  
H181     H      0.174300000000     0.532610000000     0.773320000000     0.0423919  
H182     H      0.285520000000     0.524510000000     0.656190000000     0.0473276  
H183     H      0.391500000000     0.499540000000     0.770120000000     0.0346534  
H184     H      0.110290000000     0.518470000000     0.711120000000     0.0336626  
H185     H      0.262010000000     0.438910000000     0.809180000000     0.0504712  
H186     H      0.241360000000     0.571120000000     0.661860000000     0.0503594  
H187     H      0.276170000000     0.495400000000     0.877960000000     0.034571   
H188     H      0.326280000000     0.441720000000     0.747560000000     0.0502412  
H189     H      0.179200000000     0.574570000000     0.724640000000     0.0488903  
H190     H      0.217340000000     0.517160000000     0.596790000000     0.0271393  
H191     H      0.350330000000     0.551070000000     0.766860000000     0.0276585  
H192     H      0.224000000000     0.417060000000     0.677490000000     0.0354643  
H193     H      0.779720000000     0.544010000000     0.830530000000     0.0413923  
H194     H      0.777090000000     0.442990000000     0.658630000000     0.026727   
H195     H      0.649780000000     0.590380000000     0.789920000000     0.0266167  
H196     H      0.670660000000     0.544800000000     0.720590000000     0.041051   
H197     H      0.715960000000     0.502780000000     0.672030000000     0.0418441  
H198     H      0.830280000000     0.507640000000     0.783620000000     0.0474603  
H199     H      0.715830000000     0.533490000000     0.896130000000     0.0339779  
H200     H      0.777480000000     0.487000000000     0.609850000000     0.0333461  
H201     H      0.665150000000     0.485510000000     0.750670000000     0.048828   
H202     H      0.833430000000     0.558170000000     0.741650000000     0.0524014  
H203     H      0.605430000000     0.542060000000     0.783060000000     0.0342553  
H204     H      0.751340000000     0.483860000000     0.833960000000     0.0482091  
H205     H      0.756940000000     0.554420000000     0.664520000000     0.051231   
H206     H      0.892370000000     0.499610000000     0.717820000000     0.02767    
H207     H      0.711990000000     0.586780000000     0.857460000000     0.0268808  
H208     H      0.805880000000     0.410500000000     0.745420000000     0.0331043  
H209     H      0.823590000000     0.716550000000     0.957740000000     0.0412443  
H210     H      0.648620000000     0.724370000000     0.059200000000     0.0266993  
H211     H      0.779430000000     0.846440000000     0.903310000000     0.026212   
H212     H      0.713920000000     0.828050000000     0.954820000000     0.0409612  
H213     H      0.666850000000     0.783990000000     0.000330000000     0.0424002  
H214     H      0.778620000000     0.671190000000     0.003940000000     0.0477056  
H215     H      0.889130000000     0.779910000000     0.952210000000     0.0337878  
H216     H      0.602860000000     0.721090000000     0.012530000000     0.0335088  
H217     H      0.748200000000     0.836920000000     0.010800000000     0.048999   
H218     H      0.739330000000     0.662870000000     0.951890000000     0.0524735  
H219     H      0.777960000000     0.893210000000     0.949710000000     0.0336273  
H220     H      0.831410000000     0.752540000000     0.012950000000     0.0493334  
H221     H      0.659760000000     0.742860000000     0.948870000000     0.0507743  
H222     H      0.713880000000     0.607650000000     0.013180000000     0.0282492  
H223     H      0.843570000000     0.780850000000     0.904840000000     0.0263777  
H224     H      0.735480000000     0.701530000000     0.095980000000     0.0331648  
H225     H      0.710300000000     0.167740000000     0.016190000000     0.0430901  
H226     H      0.716790000000     0.347610000000     0.043870000000     0.0286323  
H227     H      0.845470000000     0.228370000000     0.955800000000     0.0273118  
H228     H      0.822980000000     0.284080000000     0.025150000000     0.0414165  
H229     H      0.780550000000     0.328920000000     0.981240000000     0.0424371  
H230     H      0.667420000000     0.212680000000     0.973030000000     0.0474178  
H231     H      0.775130000000     0.107980000000     0.996660000000     0.0349732  
H232     H      0.715350000000     0.389970000000     0.993530000000     0.0327894  
H233     H      0.818420000000     0.233640000000     0.065220000000     0.0502216  
H234     H      0.674730000000     0.260190000000     0.930330000000     0.050837   
H235     H      0.885900000000     0.221090000000     0.007160000000     0.035307   
H236     H      0.757400000000     0.169940000000     0.059950000000     0.0509393  
H237     H      0.735860000000     0.324640000000     0.935030000000     0.049491   
H238     H      0.604930000000     0.278550000000     0.980140000000     0.0273573  
H239     H      0.771620000000     0.153620000000     0.949130000000     0.0276634  
H240     H      0.678870000000     0.268220000000     0.084460000000     0.0343785  
H241     H      0.208590000000     0.668560000000     0.019910000000     0.0431925  
H242     H      0.216660000000     0.844770000000     0.047390000000     0.0294888  
H243     H      0.342840000000     0.729270000000     0.958500000000     0.0270105  
H244     H      0.322350000000     0.783250000000     0.030330000000     0.0417243  
H245     H      0.281630000000     0.828390000000     0.984940000000     0.0426343  
H246     H      0.169190000000     0.712200000000     0.971680000000     0.0475399  
H247     H      0.273000000000     0.608130000000     0.998580000000     0.0348845  
H248     H      0.216320000000     0.889000000000     0.998590000000     0.0329758  
H249     H      0.318050000000     0.731370000000     0.068580000000     0.0504475  
H250     H      0.177100000000     0.761020000000     0.930560000000     0.0513282  
H251     H      0.384530000000     0.720780000000     0.008660000000     0.0354354  
H252     H      0.256440000000     0.669210000000     0.062880000000     0.0503455  
H253     H      0.237400000000     0.825370000000     0.938170000000     0.0498939  
H254     H      0.106140000000     0.777950000000     0.979120000000     0.0277139  
H255     H      0.268830000000     0.654340000000     0.951680000000     0.0272591  
H256     H      0.176870000000     0.766610000000     0.085560000000     0.035871   
H257     H      0.207760000000     0.325460000000     0.974960000000     0.0431291  
H258     H      0.219650000000     0.146120000000     0.965390000000     0.0318867  
H259     H      0.347300000000     0.274820000000     0.036180000000     0.0312974  
H260     H      0.322210000000     0.210910000000     0.975730000000     0.0423613  
H261     H      0.282350000000     0.171160000000     0.026730000000     0.0432994  
H262     H      0.169120000000     0.286780000000     0.027850000000     0.0468205  
H263     H      0.272890000000     0.388510000000     0.981720000000     0.0343822  
H264     H      0.216670000000     0.108740000000     0.019490000000     0.0332258  
H265     H      0.314940000000     0.255720000000     0.929780000000     0.0505152  
H266     H      0.176400000000     0.241280000000     0.072610000000     0.0504575  
H267     H      0.384540000000     0.276820000000     0.982040000000     0.0364049  
H268     H      0.252770000000     0.318210000000     0.929500000000     0.0509502  
H269     H      0.237270000000     0.178320000000     0.072130000000     0.0489338  
H270     H      0.106380000000     0.219760000000     0.024090000000     0.0251534  
H271     H      0.270870000000     0.351130000000     0.035960000000     0.0283779  
H272     H      0.099250000000     0.264570000000     0.938720000000     0.0277608  
H273     H      0.793740000000     0.001810000000     0.641720000000     0.042905   
H274     H      0.780570000000     0.051520000000     0.827450000000     0.0269214  
H275     H      0.664210000000     0.957220000000     0.712030000000     0.0283484  
H276     H      0.688690000000     0.032540000000     0.760980000000     0.0416418  
H277     H      0.728340000000     0.979740000000     0.800660000000     0.0428014  
H278     H      0.847650000000     0.009270000000     0.695250000000     0.0486142  
H279     H      0.724150000000     0.988380000000     0.586240000000     0.0366347  
H280     H      0.784870000000     0.999180000000     0.867500000000     0.0335923  
H281     H      0.689920000000     0.067620000000     0.706770000000     0.0500477  
H282     H      0.847370000000     0.954980000000     0.732160000000     0.0521349  
H283     H      0.621820000000     0.007640000000     0.705820000000     0.0344676  
H284     H      0.753870000000     0.054260000000     0.639830000000     0.0518448  
H285     H      0.780860000000     0.942150000000     0.797390000000     0.0521247  
H286     H      0.904870000000     0.011710000000     0.765890000000     0.0287439  
H287     H      0.727930000000     0.943670000000     0.634430000000     0.0287014  
H288     H      0.816050000000     0.103080000000     0.752380000000     0.0340274  
H289     H      0.227650000000     0.981800000000     0.686150000000     0.0450781  
H290     H      0.225810000000     0.954070000000     0.858610000000     0.0270221  
H291     H      0.358130000000     0.064140000000     0.725100000000     0.031358   
H292     H      0.348510000000     0.006320000000     0.791210000000     0.0422311  
H293     H      0.294590000000     0.006260000000     0.844840000000     0.042631   
H294     H      0.190530000000     0.037070000000     0.724870000000     0.0487575  
H295     H      0.284220000000     0.003130000000     0.619370000000     0.0355811  
H296     H      0.225000000000     0.003600000000     0.901880000000     0.0344909  
H297     H      0.347460000000     0.954050000000     0.751260000000     0.0490371  
H298     H      0.196300000000     0.075540000000     0.776090000000     0.0543449  
H299     H      0.404510000000     0.017450000000     0.721820000000     0.0367909  
H300     H      0.279930000000     0.943860000000     0.687880000000     0.052557   
H301     H      0.258880000000     0.061670000000     0.843360000000     0.0504265  
H302     H      0.123320000000     0.027230000000     0.784850000000     0.0288032  
H303     H      0.280590000000     0.054200000000     0.661280000000     0.028693   
H304     H      0.195250000000     0.920940000000     0.772770000000     0.0343654  
H305     H      0.305370000000     0.956760000000     0.228320000000     0.0440411  
H306     H      0.131010000000     0.927560000000     0.220210000000     0.0320348  
H307     H      0.262850000000     0.047300000000     0.353050000000     0.0264071  
H308     H      0.198470000000     0.987540000000     0.345840000000     0.041434   
H309     H      0.145780000000     0.975460000000     0.290960000000     0.0427292  
H310     H      0.265710000000     0.008790000000     0.187800000000     0.0472225  
H311     H      0.371020000000     0.985160000000     0.283100000000     0.0346158  
H312     H      0.087850000000     0.977180000000     0.221480000000     0.0343678  
H313     H      0.239550000000     0.936060000000     0.349350000000     0.0498207  
H314     H      0.215360000000     0.048590000000     0.194000000000     0.0517177  
H315     H      0.267580000000     0.003420000000     0.401900000000     0.0347904  
H316     H      0.304680000000     0.923080000000     0.283380000000     0.0526124  
H317     H      0.146280000000     0.033320000000     0.258640000000     0.0484793  
H318     H      0.206550000000     0.000340000000     0.120560000000     0.0252684  
H319     H      0.327090000000     0.034080000000     0.275820000000     0.0265534  
H320     H      0.244830000000     0.914000000000     0.107180000000     0.0302017  
H321     H      0.697790000000     0.983940000000     0.141950000000     0.0417977  
H322     H      0.710500000000     0.943160000000     0.330330000000     0.0302329  
H323     H      0.828770000000     0.030280000000     0.210520000000     0.0318884  
H324     H      0.803620000000     0.956480000000     0.261280000000     0.0424458  
H325     H      0.765580000000     0.010940000000     0.300120000000     0.0440575  
H326     H      0.644490000000     0.983820000000     0.196020000000     0.0479507  
H327     H      0.767070000000     0.995610000000     0.085730000000     0.0339911  
H328     H      0.707950000000     0.997570000000     0.367730000000     0.0357972  
H329     H      0.801460000000     0.920170000000     0.207950000000     0.0495715  
H330     H      0.647620000000     0.038910000000     0.231460000000     0.0525694  
H331     H      0.870200000000     0.979050000000     0.204680000000     0.0353949  
H332     H      0.737890000000     0.931840000000     0.141800000000     0.0484284  
H333     H      0.715030000000     0.050970000000     0.295360000000     0.0523921  
H334     H      0.587770000000     0.985550000000     0.266650000000     0.0285531  
H335     H      0.763420000000     0.042210000000     0.132140000000     0.0294051  
H336     H      0.673150000000     0.890030000000     0.258530000000     0.0346165  
H337     H      0.977350000000     0.186780000000     0.724140000000     0.0457302  
H338     H      0.957210000000     0.359730000000     0.727350000000     0.0307217  
H339     H      0.055390000000     0.233820000000     0.855610000000     0.0299613  
H340     H      0.991870000000     0.296670000000     0.842530000000     0.0413065  
H341     H      0.018190000000     0.346040000000     0.791550000000     0.0430599  
H342     H      0.033570000000     0.223190000000     0.686730000000     0.0487301  
H343     H      0.001060000000     0.122120000000     0.782430000000     0.0365936  
H344     H      0.007000000000     0.402420000000     0.722170000000     0.0370646  
H345     H      0.944970000000     0.251710000000     0.839840000000     0.049277   
H346     H      0.073140000000     0.273790000000     0.689810000000     0.0541315  
H347     H      0.007550000000     0.228580000000     0.900370000000     0.0347975  
H348     H      0.939580000000     0.188790000000     0.776200000000     0.0529596  
H349     H      0.066550000000     0.340790000000     0.748610000000     0.050794   
H350     H      0.021490000000     0.284050000000     0.619700000000     0.0281151  
H351     H      0.050270000000     0.166020000000     0.778230000000     0.0293412  
H352     H      0.917600000000     0.278490000000     0.694850000000     0.0357848  
H353     H      0.967230000000     0.730980000000     0.804510000000     0.0450773  
H354     H      0.934010000000     0.724950000000     0.632030000000     0.0315546  
H355     H      0.058430000000     0.855330000000     0.762790000000     0.0286786  
H356     H      0.000140000000     0.848740000000     0.697590000000     0.04346    
H357     H      0.985130000000     0.794230000000     0.644960000000     0.0415605  
H358     H      0.017090000000     0.688980000000     0.763990000000     0.047547   
H359     H      0.996070000000     0.785630000000     0.869910000000     0.033475   
H360     H      0.981870000000     0.724470000000     0.587270000000     0.0344557  
H361     H      0.948180000000     0.853280000000     0.737680000000     0.0507449  
H362     H      0.055430000000     0.693750000000     0.712660000000     0.0513197  
H363     H      0.015650000000     0.905320000000     0.766620000000     0.0366983  
H364     H      0.934030000000     0.786580000000     0.803590000000     0.0536172  
H365     H      0.041130000000     0.759120000000     0.644120000000     0.0482114  
H366     H      0.004620000000     0.621700000000     0.705210000000     0.0259638  
H367     H      0.044450000000     0.778700000000     0.825660000000     0.0261215  
H368     H      0.903190000000     0.612690000000     0.702280000000     0.0402521  
H369     H      0.946530000000     0.805010000000     0.259860000000     0.0432739  
H370     H      0.929390000000     0.628520000000     0.266010000000     0.0266322  
H371     H      0.038180000000     0.765990000000     0.134750000000     0.0331854  
H372     H      0.981110000000     0.698900000000     0.142160000000     0.0416361  
H373     H      0.979250000000     0.645740000000     0.196970000000     0.0427049  
H374     H      0.000600000000     0.768790000000     0.300650000000     0.0483925  
H375     H      0.970390000000     0.872310000000     0.204220000000     0.0342397  
H376     H      0.981370000000     0.588340000000     0.266390000000     0.0339621  
H377     H      0.928640000000     0.738320000000     0.139650000000     0.0480851  
H378     H      0.043430000000     0.720890000000     0.295230000000     0.0538712  
H379     H      0.993960000000     0.768770000000     0.086300000000     0.0365304  
H380     H      0.913030000000     0.802110000000     0.204930000000     0.0495958  
H381     H      0.034800000000     0.650950000000     0.231870000000     0.0513266  
H382     H      0.995630000000     0.708230000000     0.367800000000     0.0279181  
H383     H      0.021800000000     0.831580000000     0.212400000000     0.0303993  
H384     H      0.890750000000     0.713460000000     0.294090000000     0.0337056  
H385     H      0.975530000000     0.197570000000     0.345590000000     0.042253   
H386     H      0.942630000000     0.215470000000     0.159670000000     0.0286616  
H387     H      0.030960000000     0.326860000000     0.276330000000     0.0302189  
H388     H      0.956120000000     0.305030000000     0.225730000000     0.0418365  
H389     H      0.013100000000     0.267790000000     0.189250000000     0.0432426  
H390     H      0.986820000000     0.144950000000     0.292300000000     0.0478382  
H391     H      0.994300000000     0.266010000000     0.401140000000     0.0338334  
H392     H      0.995620000000     0.211300000000     0.120900000000     0.0332444  
H393     H      0.920230000000     0.304870000000     0.279270000000     0.0513525  
H394     H      0.038820000000     0.147980000000     0.253460000000     0.0517264  
H395     H      0.982260000000     0.371040000000     0.282400000000     0.0363312  
H396     H      0.928170000000     0.242560000000     0.344790000000     0.0506405  
H397     H      0.050710000000     0.215170000000     0.192140000000     0.0500244  
H398     H      0.981860000000     0.089550000000     0.221010000000     0.0279642  
H399     H      0.039600000000     0.259860000000     0.353880000000     0.0271405  
H400     H      0.890280000000     0.179010000000     0.231720000000     0.0341789  
N1       N      0.490730000000     0.332070000000     0.150260000000    -0.177164   
N2       N      0.495080000000     0.155100000000     0.327960000000    -0.173033   
N3       N      0.480900000000     0.831480000000     0.339020000000    -0.177015   
N4       N      0.486090000000     0.655770000000     0.161380000000    -0.172766   
N5       N      0.499800000000     0.666730000000     0.839240000000    -0.177606   
N6       N      0.504990000000     0.842040000000     0.660540000000    -0.173189   
N7       N      0.507490000000     0.165420000000     0.650170000000    -0.1774     
N8       N      0.502190000000     0.343290000000     0.828190000000    -0.173073   
N9       N      0.663330000000     0.153800000000     0.482510000000    -0.177625   
N10      N      0.838190000000     0.327980000000     0.504410000000    -0.172751   
N11      N      0.650670000000     0.830260000000     0.485980000000    -0.177103   
N12      N      0.826920000000     0.651550000000     0.489720000000    -0.172876   
N13      N      0.160980000000     0.340390000000     0.506780000000    -0.176561   
N14      N      0.340880000000     0.166070000000     0.502260000000    -0.173249   
N15      N      0.329170000000     0.843170000000     0.510740000000    -0.177707   
N16      N      0.148610000000     0.661770000000     0.472260000000    -0.173607   
N17      N      0.649630000000     0.493060000000     0.161500000000    -0.176979   
N18      N      0.827600000000     0.477880000000     0.338920000000    -0.173044   
N19      N      0.148970000000     0.474670000000     0.330650000000    -0.178783   
N20      N      0.330180000000     0.522060000000     0.148590000000    -0.174706   
N21      N      0.159900000000     0.506860000000     0.650140000000    -0.17707    
N22      N      0.337660000000     0.504820000000     0.828390000000    -0.172765   
N23      N      0.838760000000     0.490670000000     0.660320000000    -0.178775   
N24      N      0.657230000000     0.533830000000     0.842720000000    -0.174442   
N25      N      0.654750000000     0.660620000000     0.014600000000    -0.177798   
N26      N      0.837020000000     0.840090000000     0.954700000000    -0.17412    
N27      N      0.655330000000     0.337510000000     0.996910000000    -0.177767   
N28      N      0.834690000000     0.161150000000     0.994380000000    -0.172693   
N29      N      0.156210000000     0.836410000000     0.998790000000    -0.177875   
N30      N      0.332710000000     0.661200000000     0.995880000000    -0.17334    
N31      N      0.157030000000     0.160570000000     0.009620000000    -0.176709   
N32      N      0.332960000000     0.337010000000     0.990980000000    -0.17242    
N33      N      0.848200000000     0.012780000000     0.821240000000    -0.17767    
N34      N      0.668510000000     0.993280000000     0.642990000000    -0.173032   
N35      N      0.168850000000     0.005720000000     0.845750000000    -0.177579   
N36      N      0.347660000000     0.014490000000     0.666100000000    -0.172965   
N37      N      0.144310000000     0.981570000000     0.165700000000    -0.177092   
N38      N      0.323620000000     0.999200000000     0.345520000000    -0.173625   
N39      N      0.644360000000     0.984010000000     0.322040000000    -0.177023   
N40      N      0.823100000000     0.993170000000     0.142120000000    -0.173058   
N41      N      0.003410000000     0.345640000000     0.666230000000    -0.176993   
N42      N      0.010050000000     0.171180000000     0.844870000000    -0.17315    
N43      N      0.986040000000     0.668030000000     0.643470000000    -0.177964   
N44      N      0.009370000000     0.848690000000     0.822570000000    -0.173686   
N45      N      0.980290000000     0.645060000000     0.322370000000    -0.177758   
N46      N      0.988000000000     0.825140000000     0.142480000000    -0.172708   
N47      N      0.980740000000     0.147260000000     0.166260000000    -0.177904   
N48      N      0.994080000000     0.322700000000     0.344870000000    -0.173845   
O1       O      0.989070000000     0.132480000000     0.083870000000    -0.379149   
O2       O      0.991460000000     0.852930000000     0.063250000000    -0.378695   
O3       O      0.905530000000     0.990390000000     0.126180000000    -0.377385   
O4       O      0.064890000000     0.985570000000     0.138130000000    -0.376955   
O5       O      0.128490000000     0.991670000000     0.083890000000    -0.379381   
O6       O      0.850880000000     0.995580000000     0.062860000000    -0.379023   
O7       O      0.985990000000     0.908040000000     0.126380000000    -0.378608   
O8       O      0.983710000000     0.068070000000     0.137670000000    -0.379417   
O9       O      0.041670000000     0.945220000000     0.043150000000    -0.508096   
O10      O      0.942790000000     0.045170000000     0.042860000000    -0.507438   
O11      O      0.941740000000     0.944900000000     0.036050000000    -0.650851   
O12      O      0.041800000000     0.045070000000     0.051030000000    -0.648944   
O13      O      0.002370000000     0.865010000000     0.904530000000    -0.37815    
O14      O      0.003460000000     0.144490000000     0.924380000000    -0.375958   
O15      O      0.857550000000     0.920090000000     0.971850000000    -0.379448   
O16      O      0.134580000000     0.918050000000     0.000860000000    -0.376811   
O17      O      0.135140000000     0.078880000000     0.006920000000    -0.378577   
O18      O      0.857020000000     0.079840000000     0.989910000000    -0.377871   
O19      O      0.927260000000     0.009550000000     0.849460000000    -0.378663   
O20      O      0.086440000000     0.008470000000     0.861820000000    -0.377336   
O21      O      0.863390000000     0.005880000000     0.903590000000    -0.377399   
O22      O      0.141110000000     0.002040000000     0.924990000000    -0.379262   
O23      O      0.916600000000     0.860200000000     0.972370000000    -0.379304   
O24      O      0.915920000000     0.139280000000     0.998310000000    -0.377791   
O25      O      0.075880000000     0.138550000000     0.007530000000    -0.37703    
O26      O      0.075550000000     0.858890000000     0.991650000000    -0.376461   
O27      O      0.007010000000     0.928640000000     0.849770000000    -0.377505   
O28      O      0.007360000000     0.088710000000     0.861690000000    -0.379392   
O29      O      0.049330000000     0.052270000000     0.951930000000    -0.50772    
O30      O      0.950330000000     0.953000000000     0.937290000000    -0.50992    
O31      O      0.950200000000     0.052800000000     0.944290000000    -0.651636   
O32      O      0.049520000000     0.952130000000     0.944860000000    -0.653245   
O33      O      0.996590000000     0.350000000000     0.424270000000    -0.379952   
O34      O      0.985950000000     0.629150000000     0.404660000000    -0.376772   
O35      O      0.909300000000     0.482170000000     0.358210000000    -0.377678   
O36      O      0.068900000000     0.484040000000     0.353680000000    -0.379947   
O37      O      0.129850000000     0.488950000000     0.411000000000    -0.381372   
O38      O      0.851820000000     0.484420000000     0.419120000000    -0.378063   
O39      O      0.986080000000     0.565360000000     0.349880000000    -0.380309   
O40      O      0.990620000000     0.405350000000     0.361380000000    -0.37748    
O41      O      0.040140000000     0.543390000000     0.439470000000    -0.507238   
O42      O      0.944150000000     0.440030000000     0.449940000000    -0.507438   
O43      O      0.940370000000     0.540060000000     0.442860000000    -0.655063   
O44      O      0.043330000000     0.443640000000     0.447040000000    -0.653315   
O45      O      0.988080000000     0.640700000000     0.564010000000    -0.379248   
O46      O      0.001200000000     0.361640000000     0.583870000000    -0.377294   
O47      O      0.851660000000     0.570910000000     0.494960000000    -0.379003   
O48      O      0.129820000000     0.580060000000     0.482290000000    -0.380913   
O49      O      0.135620000000     0.420530000000     0.499030000000    -0.375463   
O50      O      0.857450000000     0.410150000000     0.501760000000    -0.377493   
O51      O      0.918480000000     0.499130000000     0.635680000000    -0.3797     
O52      O      0.077890000000     0.505870000000     0.630970000000    -0.377616   
O53      O      0.857430000000     0.492970000000     0.578610000000    -0.381323   
O54      O      0.135190000000     0.504100000000     0.569870000000    -0.3763     
O55      O      0.908670000000     0.632240000000     0.487030000000    -0.376472   
O56      O      0.918670000000     0.352550000000     0.504110000000    -0.377415   
O57      O      0.078870000000     0.358650000000     0.503830000000    -0.377004   
O58      O      0.068450000000     0.637460000000     0.479260000000    -0.378618   
O59      O      0.992580000000     0.585440000000     0.627130000000    -0.381327   
O60      O      0.000760000000     0.425390000000     0.638700000000    -0.376173   
O61      O      0.046470000000     0.450650000000     0.545750000000    -0.507397   
O62      O      0.943660000000     0.547000000000     0.541900000000    -0.507063   
O63      O      0.947340000000     0.447210000000     0.548770000000    -0.652814   
O64      O      0.043240000000     0.551050000000     0.539090000000    -0.652923   
O65      O      0.565400000000     0.989370000000     0.350080000000    -0.377802   
O66      O      0.586150000000     0.999090000000     0.627200000000    -0.379178   
O67      O      0.637950000000     0.073280000000     0.483080000000    -0.378038   
O68      O      0.631790000000     0.912620000000     0.486640000000    -0.376229   
O69      O      0.570620000000     0.855260000000     0.492730000000    -0.3771     
O70      O      0.581230000000     0.135400000000     0.485320000000    -0.378968   
O71      O      0.640640000000     0.992970000000     0.563840000000    -0.377078   
O72      O      0.629150000000     0.990950000000     0.404460000000    -0.377101   
O73      O      0.547420000000     0.948140000000     0.541860000000    -0.507573   
O74      O      0.543840000000     0.045090000000     0.439450000000    -0.506803   
O75      O      0.551270000000     0.048310000000     0.538690000000    -0.651627   
O76      O      0.540040000000     0.945010000000     0.443020000000    -0.653606   
O77      O      0.426820000000     0.008410000000     0.638650000000    -0.37691    
O78      O      0.406030000000     0.996210000000     0.361550000000    -0.3798     
O79      O      0.504160000000     0.141160000000     0.569650000000    -0.376941   
O80      O      0.498320000000     0.860960000000     0.578880000000    -0.378119   
O81      O      0.485610000000     0.856060000000     0.419250000000    -0.376114   
O82      O      0.496990000000     0.135890000000     0.409710000000    -0.379044   
O83      O      0.360390000000     0.083990000000     0.503110000000    -0.378569   
O84      O      0.354390000000     0.923660000000     0.507350000000    -0.379482   
O85      O      0.421180000000     0.141610000000     0.495760000000    -0.377446   
O86      O      0.410950000000     0.861560000000     0.503440000000    -0.379207   
O87      O      0.507360000000     0.083260000000     0.630480000000    -0.376714   
O88      O      0.491450000000     0.074350000000     0.352680000000    -0.378212   
O89      O      0.483060000000     0.913800000000     0.358220000000    -0.376555   
O90      O      0.504380000000     0.922680000000     0.635650000000    -0.379528   
O91      O      0.363340000000     0.007680000000     0.583940000000    -0.377236   
O92      O      0.351290000000     0.001230000000     0.424790000000    -0.37881    
O93      O      0.440970000000     0.948700000000     0.450010000000    -0.507918   
O94      O      0.452190000000     0.051820000000     0.545500000000    -0.507642   
O95      O      0.444600000000     0.049050000000     0.446570000000    -0.651639   
O96      O      0.448260000000     0.951810000000     0.549430000000    -0.652287   
O97      O      0.354630000000     0.418760000000     0.990580000000    -0.381011   
O98      O      0.633530000000     0.419240000000     0.996700000000    -0.38165    
O99      O      0.496770000000     0.362280000000     0.909940000000    -0.377545   
O100     O      0.492710000000     0.356900000000     0.069980000000    -0.374174   
O101     O      0.489520000000     0.414440000000     0.131160000000    -0.38187    
O102     O      0.500530000000     0.424050000000     0.852990000000    -0.38166    
O103     O      0.574210000000     0.359660000000     0.993880000000    -0.375544   
O104     O      0.414080000000     0.359240000000     0.989280000000    -0.376661   
O105     O      0.542040000000     0.447730000000     0.044420000000    -0.509387   
O106     O      0.445600000000     0.450790000000     0.941510000000    -0.510429   
O107     O      0.545790000000     0.451200000000     0.944820000000    -0.649065   
O108     O      0.442350000000     0.447730000000     0.041480000000    -0.64899    
O109     O      0.632820000000     0.579560000000     0.006550000000    -0.37661    
O110     O      0.354780000000     0.579780000000     0.992270000000    -0.376099   
O111     O      0.577480000000     0.514840000000     0.859960000000    -0.379037   
O112     O      0.569340000000     0.494690000000     0.136670000000    -0.37832    
O113     O      0.410170000000     0.505210000000     0.130390000000    -0.380104   
O114     O      0.418150000000     0.503710000000     0.852960000000    -0.378054   
O115     O      0.498000000000     0.642100000000     0.919590000000    -0.379646   
O116     O      0.489280000000     0.636780000000     0.079580000000    -0.376657   
O117     O      0.497560000000     0.584480000000     0.858430000000    -0.376732   
O118     O      0.489650000000     0.575090000000     0.136670000000    -0.375115   
O119     O      0.635010000000     0.513120000000     0.920880000000    -0.379753   
O120     O      0.356940000000     0.501310000000     0.910120000000    -0.379094   
O121     O      0.352730000000     0.506910000000     0.069390000000    -0.378659   
O122     O      0.630670000000     0.495310000000     0.079620000000    -0.376175   
O123     O      0.573910000000     0.639520000000     0.004680000000    -0.378937   
O124     O      0.413840000000     0.639390000000     0.997870000000    -0.379463   
O125     O      0.443190000000     0.547210000000     0.043720000000    -0.507363   
O126     O      0.544720000000     0.550740000000     0.949090000000    -0.507765   
O127     O      0.445580000000     0.551510000000     0.945140000000    -0.651288   
O128     O      0.542110000000     0.548020000000     0.048130000000    -0.652997   
S1       S      0.424040000000     0.261380000000     0.132380000000    -0.061008   
S2       S      0.550040000000     0.763170000000     0.356710000000    -0.0581499  
S3       S      0.434330000000     0.738790000000     0.855420000000    -0.0622934  
S4       S      0.443710000000     0.146990000000     0.722990000000    -0.0552099  
S5       S      0.729900000000     0.128240000000     0.550540000000    -0.0593509  
S6       S      0.717440000000     0.843600000000     0.414730000000    -0.0581023  
S7       S      0.149900000000     0.272310000000     0.577350000000    -0.0529077  
S8       S      0.265760000000     0.850660000000     0.585470000000    -0.062612   
S9       S      0.634650000000     0.560450000000     0.232100000000    -0.059475   
S10      S      0.136600000000     0.400990000000     0.265970000000    -0.0627686  
S11      S      0.228740000000     0.438350000000     0.632100000000    -0.0531963  
S12      S      0.852460000000     0.423530000000     0.731310000000    -0.0629347  
S13      S      0.722270000000     0.653690000000     0.086040000000    -0.0623577  
S14      S      0.634950000000     0.264330000000     0.060190000000    -0.0550388  
S15      S      0.134150000000     0.761510000000     0.059440000000    -0.0547982  
S16      S      0.136400000000     0.230730000000     0.943380000000    -0.0487817  
S17      S      0.863620000000     0.088010000000     0.759330000000    -0.0618805  
S18      S      0.151960000000     0.946460000000     0.768580000000    -0.0599858  
S19      S      0.219350000000     0.919230000000     0.150240000000    -0.0534938  
S20      S      0.626060000000     0.907500000000     0.262540000000    -0.0598712  
S21      S      0.942470000000     0.269000000000     0.652140000000    -0.0594251  
S22      S      0.925430000000     0.654510000000     0.719920000000    -0.0612963  
S23      S      0.914470000000     0.717190000000     0.338300000000    -0.0612627  
S24      S      0.906090000000     0.131050000000     0.228400000000    -0.0555934  
Zr1      Zr     0.988220000000     0.991150000000     0.091950000000     1.4252     
Zr2      Zr     0.995840000000     0.899530000000     0.986780000000     1.42623    
Zr3      Zr     0.995950000000     0.098400000000     0.001130000000     1.42316    
Zr4      Zr     0.897220000000     0.999460000000     0.986260000000     1.42472    
Zr5      Zr     0.094640000000     0.998600000000     0.001440000000     1.42814    
Zr6      Zr     0.003700000000     0.005890000000     0.895810000000     1.43402    
Zr7      Zr     0.990340000000     0.488240000000     0.395940000000     1.429      
Zr8      Zr     0.990030000000     0.594570000000     0.487190000000     1.42321    
Zr9      Zr     0.997200000000     0.395900000000     0.501280000000     1.42896    
Zr10     Zr     0.894730000000     0.491880000000     0.497440000000     1.42825    
Zr11     Zr     0.092280000000     0.498810000000     0.491450000000     1.42842    
Zr12     Zr     0.996750000000     0.502430000000     0.592790000000     1.42706    
Zr13     Zr     0.594660000000     0.994620000000     0.487120000000     1.42818    
Zr14     Zr     0.503440000000     0.001680000000     0.592810000000     1.42846    
Zr15     Zr     0.488770000000     0.995360000000     0.395830000000     1.42631    
Zr16     Zr     0.499710000000     0.098160000000     0.490970000000     1.42359    
Zr17     Zr     0.492370000000     0.898880000000     0.497760000000     1.42618    
Zr18     Zr     0.397590000000     0.002240000000     0.501460000000     1.42825    
Zr19     Zr     0.494050000000     0.400030000000     0.991360000000     1.41909    
Zr20     Zr     0.592850000000     0.499530000000     0.998510000000     1.42771    
Zr21     Zr     0.395010000000     0.499340000000     0.991190000000     1.42593    
Zr22     Zr     0.496790000000     0.502910000000     0.896190000000     1.42531    
Zr23     Zr     0.490930000000     0.496210000000     0.093510000000     1.43122    
Zr24     Zr     0.493950000000     0.599200000000     0.998280000000     1.43026    


