data_structure

_audit_creation_method RASPA-1.0
_audit_creation_date 2023-5-25
_audit_author_name 'Poobodin Mano'

_cell_length_a    27.199
_cell_length_b    27.0724
_cell_length_c    27.1919
_cell_angle_alpha 90
_cell_angle_beta  90
_cell_angle_gamma 90
_cell_volume      20022.5

_symmetry_cell_setting          triclinic
_symmetry_space_group_name_Hall 'P 1'
_symmetry_space_group_name_H-M  'P 1'
_symmetry_Int_Tables_number     1

_symmetry_equiv_pos_as_xyz 'x,y,z'

loop_
_atom_site_label
_atom_site_type_symbol
_atom_site_fract_x
_atom_site_fract_y
_atom_site_fract_z
_atom_site_charge
Br1      Br     0.433330000000     0.258220000000     0.134080000000    -0.261482   
Br2      Br     0.390810000000     0.847180000000     0.269880000000    -0.256337   
Br3      Br     0.409800000000     0.774030000000     0.650940000000    -0.259996   
Br4      Br     0.608010000000     0.225170000000     0.634080000000    -0.26264    
Br5      Br     0.875760000000     0.255660000000     0.416540000000    -0.241141   
Br6      Br     0.619800000000     0.755510000000     0.587390000000    -0.262239   
Br7      Br     0.162480000000     0.279170000000     0.591960000000    -0.262437   
Br8      Br     0.130130000000     0.733570000000     0.396470000000    -0.24341    
Br9      Br     0.788080000000     0.361720000000     0.335520000000    -0.243805   
Br10     Br     0.148710000000     0.423370000000     0.268900000000    -0.259409   
Br11     Br     0.129600000000     0.614670000000     0.725200000000    -0.259854   
Br12     Br     0.845790000000     0.432410000000     0.732830000000    -0.256391   
Br13     Br     0.828020000000     0.785490000000     0.868460000000    -0.257846   
Br14     Br     0.644870000000     0.270110000000     0.061910000000    -0.255996   
Br15     Br     0.258440000000     0.633380000000     0.925800000000    -0.258889   
Br16     Br     0.225390000000     0.135760000000     0.102880000000    -0.258665   
Br17     Br     0.865400000000     0.104640000000     0.752270000000    -0.249323   
Br18     Br     0.152780000000     0.943070000000     0.759540000000    -0.261365   
Br19     Br     0.218920000000     0.901760000000     0.154580000000    -0.250012   
Br20     Br     0.760980000000     0.079750000000     0.136160000000    -0.255373   
Br21     Br     0.932550000000     0.237770000000     0.861000000000    -0.248073   
Br22     Br     0.900400000000     0.660470000000     0.715440000000    -0.251937   
Br23     Br     0.075130000000     0.632900000000     0.256170000000    -0.245974   
Br24     Br     0.104250000000     0.252900000000     0.370920000000    -0.257198   
C1       C      0.981070000000     0.111130000000     0.128470000000     0.40009    
C2       C      0.977410000000     0.860190000000     0.105700000000     0.393764   
C3       C      0.860020000000     0.995350000000     0.109540000000     0.402276   
C4       C      0.109960000000     0.978340000000     0.126350000000     0.402144   
C5       C      0.996450000000     0.883330000000     0.856420000000     0.397373   
C6       C      0.009500000000     0.134240000000     0.879740000000     0.402469   
C7       C      0.863040000000     0.880940000000     0.964120000000     0.402467   
C8       C      0.112310000000     0.864610000000     0.993910000000     0.395861   
C9       C      0.125390000000     0.115320000000     0.014410000000     0.401641   
C10      C      0.875480000000     0.130420000000     0.997040000000     0.398825   
C11      C      0.878530000000     0.021100000000     0.860230000000     0.403177   
C12      C      0.128140000000     0.001910000000     0.877150000000     0.401472   
C13      C      0.019980000000     0.359860000000     0.380960000000     0.406913   
C14      C      0.991870000000     0.609100000000     0.356170000000     0.403841   
C15      C      0.878160000000     0.462440000000     0.365440000000     0.403372   
C16      C      0.126290000000     0.499150000000     0.372720000000     0.40654    
C17      C      0.975510000000     0.632060000000     0.605890000000     0.402162   
C18      C      0.006410000000     0.382470000000     0.630210000000     0.39705    
C19      C      0.858360000000     0.606280000000     0.470720000000     0.393368   
C20      C      0.107830000000     0.634180000000     0.483230000000     0.403885   
C21      C      0.133620000000     0.384830000000     0.512890000000     0.404126   
C22      C      0.883790000000     0.357490000000     0.496980000000     0.404991   
C23      C      0.866550000000     0.494070000000     0.614800000000     0.403235   
C24      C      0.114920000000     0.525430000000     0.622340000000     0.400576   
C25      C      0.612060000000     0.977240000000     0.362750000000     0.393633   
C26      C      0.625590000000     0.980850000000     0.613260000000     0.399428   
C27      C      0.633160000000     0.109680000000     0.484240000000     0.393284   
C28      C      0.606940000000     0.859640000000     0.502730000000     0.402486   
C29      C      0.378010000000     0.020620000000     0.626410000000     0.396826   
C30      C      0.362820000000     0.003900000000     0.376320000000     0.394983   
C31      C      0.516890000000     0.128340000000     0.613550000000     0.401399   
C32      C      0.487850000000     0.878220000000     0.627030000000     0.402869   
C33      C      0.471020000000     0.866580000000     0.376830000000     0.401699   
C34      C      0.503630000000     0.116550000000     0.362990000000     0.393252   
C35      C      0.383580000000     0.136050000000     0.497110000000     0.394116   
C36      C      0.357210000000     0.885250000000     0.506590000000     0.396779   
C37      C      0.376060000000     0.365300000000     0.992160000000     0.397167   
C38      C      0.626850000000     0.379350000000     0.991950000000     0.401633   
C39      C      0.497190000000     0.378520000000     0.865060000000     0.393905   
C40      C      0.505520000000     0.365860000000     0.115560000000     0.404679   
C41      C      0.612140000000     0.630890000000     0.005310000000     0.393631   
C42      C      0.361200000000     0.616500000000     0.004030000000     0.400843   
C43      C      0.615960000000     0.515570000000     0.868670000000     0.395046   
C44      C      0.622870000000     0.502280000000     0.119240000000     0.394153   
C45      C      0.372540000000     0.488820000000     0.125490000000     0.395417   
C46      C      0.366390000000     0.489490000000     0.874180000000     0.398273   
C47      C      0.485490000000     0.629930000000     0.877010000000     0.394607   
C48      C      0.488070000000     0.617420000000     0.128080000000     0.394667   
C49      C      0.511460000000     0.134310000000     0.273680000000     0.00967018 
C50      C      0.509000000000     0.339400000000     0.202690000000     0.0204168  
C51      C      0.502630000000     0.276050000000     0.132850000000     0.135981   
C52      C      0.540920000000     0.302580000000     0.230900000000    -0.111057   
C53      C      0.482840000000     0.168450000000     0.238870000000    -0.101261   
C54      C      0.532600000000     0.239860000000     0.164500000000    -0.137956   
C55      C      0.496710000000     0.221670000000     0.249410000000     0.0264873  
C56      C      0.524090000000     0.250840000000     0.218400000000     0.0448403  
C57      C      0.514270000000     0.203660000000     0.336770000000     0.0104549  
C58      C      0.484010000000     0.235730000000     0.301770000000    -0.102155   
C59      C      0.480120000000     0.704640000000     0.155510000000     0.0121279  
C60      C      0.446810000000     0.779900000000     0.360270000000     0.0179081  
C61      C      0.459110000000     0.840540000000     0.290230000000     0.134665   
C62      C      0.470580000000     0.738670000000     0.329800000000    -0.107512   
C63      C      0.439920000000     0.725930000000     0.188500000000    -0.102281   
C64      C      0.484680000000     0.800070000000     0.260540000000    -0.133891   
C65      C      0.452050000000     0.714320000000     0.241620000000     0.0209754  
C66      C      0.466210000000     0.749260000000     0.275200000000     0.041912   
C67      C      0.493630000000     0.636180000000     0.217410000000     0.0109234  
C68      C      0.454740000000     0.659150000000     0.251330000000    -0.101898   
C69      C      0.483320000000     0.655720000000     0.789540000000     0.0116531  
C70      C      0.480080000000     0.860670000000     0.716210000000     0.0188038  
C71      C      0.479340000000     0.790930000000     0.652800000000     0.136076   
C72      C      0.507270000000     0.826530000000     0.752040000000    -0.109029   
C73      C      0.450400000000     0.691940000000     0.761650000000    -0.103201   
C74      C      0.506700000000     0.758440000000     0.689980000000    -0.136682   
C75      C      0.466690000000     0.744020000000     0.773620000000     0.0265924  
C76      C      0.493010000000     0.773400000000     0.741860000000     0.0432691  
C77      C      0.491180000000     0.719470000000     0.858130000000     0.0109746  
C78      C      0.459410000000     0.755040000000     0.827780000000    -0.103435   
C79      C      0.487360000000     0.359890000000     0.776130000000     0.0101051  
C80      C      0.526500000000     0.155140000000     0.700310000000     0.0188232  
C81      C      0.537030000000     0.216130000000     0.630400000000     0.132679   
C82      C      0.496470000000     0.193220000000     0.728660000000    -0.107918   
C83      C      0.523250000000     0.335180000000     0.740180000000    -0.10013    
C84      C      0.510570000000     0.256040000000     0.660790000000    -0.13482    
C85      C      0.525060000000     0.279960000000     0.749990000000     0.0193967  
C86      C      0.513180000000     0.245030000000     0.715490000000     0.0412242  
C87      C      0.500750000000     0.291070000000     0.837400000000     0.0105042  
C88      C      0.538410000000     0.267830000000     0.802760000000    -0.10038    
C89      C      0.722890000000     0.122920000000     0.492920000000     0.00951034 
C90      C      0.798050000000     0.327540000000     0.491530000000     0.017196   
C91      C      0.870420000000     0.267450000000     0.486980000000     0.132908   
C92      C      0.768910000000     0.288270000000     0.519180000000    -0.109414   
C93      C      0.762630000000     0.152930000000     0.466020000000    -0.10111    
C94      C      0.837810000000     0.227470000000     0.510870000000    -0.135573   
C95      C      0.753650000000     0.207540000000     0.473980000000     0.0276933  
C96      C      0.783970000000     0.237850000000     0.500780000000     0.0450591  
C97      C      0.663980000000     0.195750000000     0.484360000000     0.00838923 
C98      C      0.703620000000     0.222950000000     0.455220000000    -0.100937   
C99      C      0.769120000000     0.620450000000     0.455700000000     0.0122966  
C100     C      0.691670000000     0.831690000000     0.520480000000     0.0196835  
C101     C      0.622870000000     0.770360000000     0.517270000000     0.133709   
C102     C      0.724340000000     0.800530000000     0.487520000000    -0.10634    
C103     C      0.733880000000     0.655270000000     0.483140000000    -0.0981647  
C104     C      0.656250000000     0.732980000000     0.490310000000    -0.133669   
C105     C      0.745930000000     0.710370000000     0.478510000000     0.0139013  
C106     C      0.711040000000     0.745860000000     0.488910000000     0.037483   
C107     C      0.829100000000     0.687970000000     0.441920000000     0.01387    
C108     C      0.799990000000     0.724600000000     0.472740000000    -0.0987016  
C109     C      0.297920000000     0.166450000000     0.504500000000     0.0113426  
C110     C      0.222440000000     0.371830000000     0.529670000000     0.0197288  
C111     C      0.163600000000     0.299120000000     0.523170000000     0.138383   
C112     C      0.262770000000     0.341540000000     0.503950000000    -0.110047   
C113     C      0.277410000000     0.202050000000     0.542690000000    -0.100811   
C114     C      0.202790000000     0.270590000000     0.494760000000    -0.139263   
C115     C      0.288900000000     0.254230000000     0.526610000000     0.0196433  
C116     C      0.253790000000     0.286670000000     0.510440000000     0.0461038  
C117     C      0.367830000000     0.226230000000     0.488360000000     0.00913667 
C118     C      0.343780000000     0.263930000000     0.523340000000    -0.100115   
C119     C      0.267290000000     0.870520000000     0.516310000000     0.00973589 
C120     C      0.193750000000     0.664700000000     0.482630000000     0.0201439  
C121     C      0.122600000000     0.723410000000     0.466970000000     0.131525   
C122     C      0.217270000000     0.703000000000     0.516120000000    -0.110723   
C123     C      0.230850000000     0.843350000000     0.482380000000    -0.0998175  
C124     C      0.150070000000     0.764240000000     0.495670000000    -0.135151   
C125     C      0.239980000000     0.788020000000     0.484190000000     0.0221469  
C126     C      0.204960000000     0.754180000000     0.497460000000     0.0429519  
C127     C      0.326520000000     0.798940000000     0.510140000000     0.0105147  
C128     C      0.292740000000     0.774260000000     0.472790000000    -0.100216   
C129     C      0.647340000000     0.510420000000     0.206850000000     0.0129086  
C130     C      0.859290000000     0.442690000000     0.278190000000     0.0184916  
C131     C      0.794670000000     0.433140000000     0.342940000000     0.132934   
C132     C      0.823790000000     0.469600000000     0.243650000000    -0.104521   
C133     C      0.678870000000     0.474620000000     0.236720000000    -0.0984469  
C134     C      0.756410000000     0.460230000000     0.311660000000    -0.13405    
C135     C      0.733440000000     0.476750000000     0.223290000000     0.0139951  
C136     C      0.769410000000     0.465270000000     0.257250000000     0.0393084  
C137     C      0.710480000000     0.516670000000     0.141070000000     0.012853   
C138     C      0.745330000000     0.481850000000     0.168530000000    -0.0988628  
C139     C      0.284810000000     0.489280000000     0.149750000000     0.0115124  
C140     C      0.215250000000     0.497960000000     0.353040000000     0.0198463  
C141     C      0.149780000000     0.493380000000     0.285130000000     0.136714   
C142     C      0.248820000000     0.525490000000     0.317000000000    -0.109939   
C143     C      0.254570000000     0.459720000000     0.186920000000    -0.103498   
C144     C      0.185260000000     0.521280000000     0.251310000000    -0.137386   
C145     C      0.267140000000     0.477720000000     0.238080000000     0.0288469  
C146     C      0.237510000000     0.508470000000     0.265220000000     0.0434717  
C147     C      0.352970000000     0.496040000000     0.214210000000     0.0115077  
C148     C      0.320400000000     0.467110000000     0.250040000000    -0.10416    
C149     C      0.279120000000     0.473310000000     0.852300000000     0.0159152  
C150     C      0.199210000000     0.550560000000     0.646630000000     0.020132   
C151     C      0.132780000000     0.544310000000     0.709960000000     0.134459   
C152     C      0.235410000000     0.521400000000     0.678110000000    -0.105829   
C153     C      0.244490000000     0.506070000000     0.822180000000    -0.102532   
C154     C      0.167360000000     0.517400000000     0.745740000000    -0.134587   
C155     C      0.257300000000     0.508460000000     0.767420000000     0.0173503  
C156     C      0.221990000000     0.519380000000     0.732600000000     0.0410565  
C157     C      0.343000000000     0.475280000000     0.787090000000     0.0138919  
C158     C      0.312000000000     0.508970000000     0.754410000000    -0.0995895  
C159     C      0.703170000000     0.524870000000     0.842650000000     0.0109871  
C160     C      0.779200000000     0.478690000000     0.636030000000     0.0196255  
C161     C      0.842030000000     0.497460000000     0.702540000000     0.136924   
C162     C      0.740480000000     0.509190000000     0.663650000000    -0.109765   
C163     C      0.731080000000     0.491350000000     0.807080000000    -0.10003    
C164     C      0.804000000000     0.529590000000     0.728800000000    -0.138685   
C165     C      0.717840000000     0.503820000000     0.754180000000     0.0193306  
C166     C      0.752240000000     0.511780000000     0.718170000000     0.0471385  
C167     C      0.634800000000     0.533910000000     0.781140000000     0.0106351  
C168     C      0.662940000000     0.502250000000     0.743780000000    -0.100313   
C169     C      0.698000000000     0.656650000000     0.021880000000     0.0142341  
C170     C      0.775280000000     0.863880000000     0.945090000000     0.0192326  
C171     C      0.838020000000     0.796580000000     0.938670000000     0.134949   
C172     C      0.739790000000     0.830440000000     0.973490000000    -0.105595   
C173     C      0.730630000000     0.685730000000     0.986790000000    -0.099809   
C174     C      0.806550000000     0.761080000000     0.968920000000    -0.135769   
C175     C      0.717470000000     0.740570000000     0.984680000000     0.0137625  
C176     C      0.752330000000     0.775390000000     0.972230000000     0.0403851  
C177     C      0.631750000000     0.719600000000     0.019120000000     0.0128978  
C178     C      0.662710000000     0.753710000000     0.986410000000    -0.0994589  
C179     C      0.788320000000     0.157020000000     0.994340000000     0.0130384  
C180     C      0.715550000000     0.361630000000     0.002700000000     0.0200823  
C181     C      0.652660000000     0.291780000000     0.994100000000     0.134299   
C182     C      0.753670000000     0.329150000000     0.976640000000    -0.110703   
C183     C      0.758470000000     0.191830000000     0.027010000000    -0.104897   
C184     C      0.692180000000     0.261190000000     0.967910000000    -0.134875   
C185     C      0.771970000000     0.244510000000     0.014250000000     0.0291962  
C186     C      0.742580000000     0.275310000000     0.986850000000     0.0433677  
C187     C      0.857770000000     0.220340000000     0.994630000000     0.00697798 
C188     C      0.825510000000     0.254590000000     0.025960000000    -0.100974   
C189     C      0.129620000000     0.774760000000     0.999420000000     0.0096877  
C190     C      0.333980000000     0.703790000000     0.005490000000     0.019704   
C191     C      0.271980000000     0.633080000000     0.996100000000     0.131371   
C192     C      0.295300000000     0.732160000000     0.034880000000    -0.110777   
C193     C      0.164180000000     0.739620000000     0.971690000000    -0.101721   
C194     C      0.233920000000     0.664820000000     0.023510000000    -0.134311   
C195     C      0.216800000000     0.750030000000     0.986870000000     0.0274406  
C196     C      0.244910000000     0.719020000000     0.015350000000     0.0445805  
C197     C      0.198950000000     0.837940000000     0.003670000000     0.0101878  
C198     C      0.231280000000     0.802470000000     0.974230000000    -0.10191    
C199     C      0.357410000000     0.276210000000     0.979860000000     0.0140749  
C200     C      0.153470000000     0.202090000000     0.023380000000     0.0189178  
C201     C      0.213510000000     0.131080000000     0.032370000000     0.13246    
C202     C      0.190490000000     0.229440000000     0.991300000000    -0.107988   
C203     C      0.332590000000     0.239470000000     0.015070000000    -0.10564    
C204     C      0.252580000000     0.160580000000     0.003860000000    -0.133631   
C205     C      0.277740000000     0.249870000000     0.017820000000     0.0250247  
C206     C      0.242440000000     0.215670000000     0.006320000000     0.0404337  
C207     C      0.289020000000     0.337560000000     0.994160000000     0.0119933  
C208     C      0.266250000000     0.302770000000     0.031940000000    -0.102751   
C209     C      0.712600000000     0.960270000000     0.632680000000     0.0128347  
C210     C      0.794710000000     0.045470000000     0.834070000000     0.0203669  
C211     C      0.861390000000     0.035330000000     0.771540000000     0.133369   
C212     C      0.759140000000     0.013050000000     0.805440000000    -0.106312   
C213     C      0.748620000000     0.991980000000     0.662340000000    -0.0982949  
C214     C      0.826530000000     0.006630000000     0.737270000000    -0.134162   
C215     C      0.736350000000     0.995790000000     0.717180000000     0.0157625  
C216     C      0.771970000000     0.008540000000     0.750990000000     0.040656   
C217     C      0.650340000000     0.962420000000     0.699160000000     0.0134366  
C218     C      0.681960000000     0.995700000000     0.731500000000    -0.0985618  
C219     C      0.291720000000     0.031750000000     0.654360000000     0.0126286  
C220     C      0.216660000000     0.989660000000     0.859120000000     0.0176945  
C221     C      0.155460000000     0.007830000000     0.790580000000     0.134894   
C222     C      0.255820000000     0.020410000000     0.832320000000    -0.10764    
C223     C      0.264800000000     0.997220000000     0.689570000000    -0.102576   
C224     C      0.193980000000     0.040540000000     0.765930000000    -0.134675   
C225     C      0.278800000000     0.009540000000     0.742240000000     0.0219448  
C226     C      0.245190000000     0.022130000000     0.777600000000     0.0417542  
C227     C      0.361650000000     0.038810000000     0.714550000000     0.0118107  
C228     C      0.333780000000     0.006740000000     0.751870000000    -0.10268    
C229     C      0.335060000000     0.000050000000     0.289320000000     0.0145772  
C230     C      0.127140000000     0.962820000000     0.214810000000     0.0192235  
C231     C      0.196730000000     0.970130000000     0.153190000000     0.137546   
C232     C      0.157480000000     0.991440000000     0.253080000000    -0.109176   
C233     C      0.298930000000     0.963100000000     0.267210000000    -0.104584   
C234     C      0.225660000000     0.001320000000     0.190000000000    -0.139595   
C235     C      0.246690000000     0.979260000000     0.278190000000     0.0231305  
C236     C      0.212170000000     0.987890000000     0.242430000000     0.0474532  
C237     C      0.274510000000     0.018510000000     0.357140000000     0.0106394  
C238     C      0.236340000000     0.984360000000     0.332880000000    -0.101001   
C239     C      0.628090000000     0.960970000000     0.274220000000     0.0107342  
C240     C      0.832370000000     0.992820000000     0.196350000000     0.0184486  
C241     C      0.771570000000     0.009150000000     0.127240000000     0.132261   
C242     C      0.794790000000     0.959350000000     0.221080000000    -0.107895   
C243     C      0.655290000000     0.993540000000     0.236860000000    -0.100533   
C244     C      0.732190000000     0.979510000000     0.155380000000    -0.134437   
C245     C      0.710350000000     0.990750000000     0.245760000000     0.0211161  
C246     C      0.743490000000     0.977890000000     0.210030000000     0.0394557  
C247     C      0.698460000000     0.968700000000     0.333980000000     0.0120057  
C248     C      0.724880000000     0.003200000000     0.298240000000    -0.101604   
C249     C      0.017060000000     0.368980000000     0.719930000000     0.0130901  
C250     C      0.015590000000     0.163740000000     0.793820000000     0.0152815  
C251     C      0.002750000000     0.224290000000     0.865010000000     0.131623   
C252     C      0.047040000000     0.202810000000     0.768370000000    -0.106211   
C253     C      0.990060000000     0.336780000000     0.757880000000    -0.105761   
C254     C      0.031680000000     0.263460000000     0.835880000000    -0.132748   
C255     C      0.001930000000     0.282770000000     0.748920000000     0.0322626  
C256     C      0.027330000000     0.253370000000     0.781270000000     0.0398115  
C257     C      0.017480000000     0.296720000000     0.660340000000     0.0106371  
C258     C      0.987840000000     0.266730000000     0.697500000000    -0.104247   
C259     C      0.992970000000     0.796730000000     0.826760000000     0.0155185  
C260     C      0.958140000000     0.720940000000     0.621160000000     0.0188394  
C261     C      0.968090000000     0.660770000000     0.692110000000     0.137471   
C262     C      0.985880000000     0.760850000000     0.650400000000    -0.109334   
C263     C      0.955580000000     0.774720000000     0.791300000000    -0.106571   
C264     C      0.998530000000     0.699280000000     0.719570000000    -0.139387   
C265     C      0.970910000000     0.786500000000     0.739110000000     0.0244564  
C266     C      0.982890000000     0.751030000000     0.705240000000     0.0467094  
C267     C      0.007940000000     0.866720000000     0.767040000000     0.00878351 
C268     C      0.974040000000     0.841610000000     0.729110000000    -0.100723   
C269     C      0.963590000000     0.770500000000     0.120230000000     0.0109788  
C270     C      0.988250000000     0.695420000000     0.326070000000     0.015206   
C271     C      0.004870000000     0.624340000000     0.267070000000     0.132302   
C272     C      0.955060000000     0.719010000000     0.287560000000    -0.105604   
C273     C      0.994210000000     0.732380000000     0.148940000000    -0.102154   
C274     C      0.975400000000     0.651560000000     0.226860000000    -0.133691   
C275     C      0.989840000000     0.741600000000     0.203860000000     0.0245628  
C276     C      0.974170000000     0.706670000000     0.236790000000     0.0384703  
C277     C      0.969220000000     0.830000000000     0.191560000000     0.0132449  
C278     C      0.002970000000     0.793990000000     0.218390000000    -0.103577   
C279     C      0.963830000000     0.127970000000     0.216810000000     0.0125931  
C280     C      0.044080000000     0.332470000000     0.297550000000     0.0185489  
C281     C      0.034950000000     0.270630000000     0.365250000000     0.137125   
C282     C      0.011420000000     0.303410000000     0.262770000000    -0.105697   
C283     C      0.994720000000     0.159170000000     0.252360000000    -0.0985332  
C284     C      0.007760000000     0.234900000000     0.330390000000    -0.137611   
C285     C      0.995920000000     0.214450000000     0.240370000000     0.016872   
C286     C      0.008350000000     0.248710000000     0.275780000000     0.0442418  
C287     C      0.960180000000     0.195880000000     0.155790000000     0.0138284  
C288     C      0.993520000000     0.229180000000     0.186140000000    -0.0989545  
H1       H      0.914330000000     0.924610000000     0.051260000000     0.20668    
H2       H      0.061930000000     0.057700000000     0.074940000000     0.211374   
H3       H      0.933020000000     0.078390000000     0.925170000000     0.219137   
H4       H      0.065620000000     0.929240000000     0.921600000000     0.212838   
H5       H      0.922130000000     0.550900000000     0.413340000000     0.207626   
H6       H      0.076910000000     0.427250000000     0.433150000000     0.216233   
H7       H      0.930420000000     0.424390000000     0.567940000000     0.211899   
H8       H      0.055230000000     0.580330000000     0.558460000000     0.21251    
H9       H      0.576450000000     0.062910000000     0.558260000000     0.213114   
H10      H      0.553810000000     0.915720000000     0.424920000000     0.206484   
H11      H      0.428450000000     0.071840000000     0.424710000000     0.208409   
H12      H      0.421390000000     0.937970000000     0.572650000000     0.21331    
H13      H      0.567190000000     0.435040000000     0.921120000000     0.207899   
H14      H      0.429730000000     0.420030000000     0.065320000000     0.213079   
H15      H      0.417770000000     0.567670000000     0.930820000000     0.213774   
H16      H      0.561320000000     0.569010000000     0.068670000000     0.210892   
H17      H      0.488560000000     0.155940000000     0.200750000000     0.0559228  
H18      H      0.470810000000     0.337720000000     0.217230000000     0.0397386  
H19      H      0.553830000000     0.213140000000     0.332440000000     0.0332932  
H20      H      0.488280000000     0.275200000000     0.310970000000     0.0461712  
H21      H      0.541750000000     0.311600000000     0.270480000000     0.0482291  
H22      H      0.525110000000     0.201650000000     0.152690000000     0.0718224  
H23      H      0.498030000000     0.095960000000     0.268060000000     0.0388766  
H24      H      0.523320000000     0.377100000000     0.210310000000     0.035629   
H25      H      0.444370000000     0.227900000000     0.308220000000     0.0569     
H26      H      0.572250000000     0.245540000000     0.156290000000     0.0779997  
H27      H      0.503470000000     0.213250000000     0.375010000000     0.0363631  
H28      H      0.442840000000     0.163650000000     0.245940000000     0.0622809  
H29      H      0.579680000000     0.307230000000     0.218660000000     0.0617125  
H30      H      0.515050000000     0.271100000000     0.094210000000     0.0346952  
H31      H      0.550900000000     0.134970000000     0.262900000000     0.0344054  
H32      H      0.433410000000     0.765440000000     0.180500000000     0.057955   
H33      H      0.406190000000     0.776660000000     0.356840000000     0.045291   
H34      H      0.530480000000     0.649230000000     0.229500000000     0.0264568  
H35      H      0.464690000000     0.648870000000     0.289360000000     0.0434031  
H36      H      0.451460000000     0.704400000000     0.341050000000     0.0470931  
H37      H      0.482260000000     0.808890000000     0.220960000000     0.0637321  
H38      H      0.470310000000     0.712540000000     0.116640000000     0.0367362  
H39      H      0.455810000000     0.773130000000     0.399560000000     0.0364604  
H40      H      0.418340000000     0.642230000000     0.243410000000     0.0545941  
H41      H      0.524640000000     0.801480000000     0.269080000000     0.0558201  
H42      H      0.492880000000     0.595480000000     0.222560000000     0.0353104  
H43      H      0.404620000000     0.707460000000     0.179060000000     0.0607333  
H44      H      0.510080000000     0.735210000000     0.339690000000     0.0499535  
H45      H      0.477470000000     0.876000000000     0.280880000000     0.0222586  
H46      H      0.515300000000     0.723960000000     0.163570000000     0.0270124  
H47      H      0.449010000000     0.682650000000     0.722150000000     0.059101   
H48      H      0.440410000000     0.860990000000     0.726120000000     0.0408025  
H49      H      0.530480000000     0.729500000000     0.852800000000     0.0317588  
H50      H      0.467260000000     0.793230000000     0.839330000000     0.0456397  
H51      H      0.500340000000     0.839720000000     0.789730000000     0.0464252  
H52      H      0.501880000000     0.718990000000     0.680960000000     0.070341   
H53      H      0.469760000000     0.617740000000     0.781990000000     0.0371791  
H54      H      0.494110000000     0.898800000000     0.721840000000     0.0350369  
H55      H      0.420140000000     0.748790000000     0.837380000000     0.0578578  
H56      H      0.546810000000     0.764870000000     0.685160000000     0.0759821  
H57      H      0.482470000000     0.725400000000     0.897620000000     0.0366928  
H58      H      0.411920000000     0.686840000000     0.774580000000     0.0630076  
H59      H      0.547510000000     0.830740000000     0.746130000000     0.0564949  
H60      H      0.494410000000     0.781880000000     0.615870000000     0.0350912  
H61      H      0.521360000000     0.658340000000     0.774760000000     0.0329411  
H62      H      0.510620000000     0.345290000000     0.702880000000     0.0452324  
H63      H      0.565320000000     0.156870000000     0.713040000000     0.0435452  
H64      H      0.464380000000     0.273450000000     0.830930000000     0.0297243  
H65      H      0.543080000000     0.228130000000     0.810920000000     0.0466623  
H66      H      0.497220000000     0.184120000000     0.768220000000     0.0460641  
H67      H      0.527690000000     0.291630000000     0.650450000000     0.0672038  
H68      H      0.489590000000     0.400510000000     0.770790000000     0.0360509  
H69      H      0.512180000000     0.117870000000     0.709710000000     0.034729   
H70      H      0.574950000000     0.284470000000     0.810720000000     0.0566037  
H71      H      0.471260000000     0.257600000000     0.649670000000     0.0570793  
H72      H      0.511880000000     0.282780000000     0.875840000000     0.0373893  
H73      H      0.560610000000     0.351030000000     0.745290000000     0.0557599  
H74      H      0.457270000000     0.189440000000     0.717630000000     0.053564   
H75      H      0.526990000000     0.222430000000     0.591300000000     0.0236366  
H76      H      0.449350000000     0.348500000000     0.766090000000     0.0293063  
H77      H      0.798690000000     0.139350000000     0.478730000000     0.0503977  
H78      H      0.786960000000     0.327120000000     0.452170000000     0.057363   
H79      H      0.664620000000     0.208970000000     0.523090000000     0.0462411  
H80      H      0.696900000000     0.263240000000     0.455180000000     0.0523133  
H81      H      0.729040000000     0.296040000000     0.517410000000     0.0530672  
H82      H      0.851070000000     0.191110000000     0.498240000000     0.0689496  
H83      H      0.727020000000     0.083620000000     0.481820000000     0.0373067  
H84      H      0.787570000000     0.364140000000     0.506820000000     0.0389246  
H85      H      0.700470000000     0.211890000000     0.415950000000     0.0619556  
H86      H      0.843750000000     0.228190000000     0.551320000000     0.0632196  
H87      H      0.627660000000     0.205850000000     0.468530000000     0.0415398  
H88      H      0.760610000000     0.144800000000     0.425990000000     0.0599992  
H89      H      0.778220000000     0.290960000000     0.558930000000     0.0609446  
H90      H      0.908080000000     0.262900000000     0.502220000000     0.0258464  
H91      H      0.730260000000     0.124810000000     0.533120000000     0.0354852  
H92      H      0.696870000000     0.646870000000     0.468190000000     0.0434947  
H93      H      0.699930000000     0.822310000000     0.559430000000     0.0464715  
H94      H      0.816530000000     0.690980000000     0.403060000000     0.0244547  
H95      H      0.804290000000     0.760420000000     0.453370000000     0.0424174  
H96      H      0.762160000000     0.807460000000     0.501120000000     0.0466465  
H97      H      0.649690000000     0.696640000000     0.507910000000     0.0689953  
H98      H      0.764030000000     0.582400000000     0.470180000000     0.0358119  
H99      H      0.701970000000     0.871090000000     0.515470000000     0.0359451  
H100     H      0.816930000000     0.727600000000     0.509820000000     0.0571608  
H101     H      0.643480000000     0.730080000000     0.451580000000     0.0548669  
H102     H      0.868500000000     0.698770000000     0.442630000000     0.0348009  
H103     H      0.734150000000     0.645500000000     0.522840000000     0.0577405  
H104     H      0.721550000000     0.814010000000     0.449000000000     0.0510162  
H105     H      0.584880000000     0.764900000000     0.503160000000     0.0231327  
H106     H      0.758440000000     0.619870000000     0.416190000000     0.0252708  
H107     H      0.238140000000     0.194610000000     0.550200000000     0.0593819  
H108     H      0.228890000000     0.370160000000     0.570030000000     0.0423138  
H109     H      0.357300000000     0.235960000000     0.450040000000     0.030499   
H110     H      0.353510000000     0.301080000000     0.509590000000     0.0435655  
H111     H      0.298000000000     0.354100000000     0.520030000000     0.0467302  
H112     H      0.195460000000     0.230490000000     0.496900000000     0.071956   
H113     H      0.289050000000     0.128260000000     0.516530000000     0.0385137  
H114     H      0.227000000000     0.411090000000     0.518650000000     0.0351373  
H115     H      0.360200000000     0.260040000000     0.560580000000     0.0521534  
H116     H      0.198680000000     0.279640000000     0.455070000000     0.0762121  
H117     H      0.408390000000     0.230380000000     0.491050000000     0.03658    
H118     H      0.296240000000     0.194960000000     0.578320000000     0.0590468  
H119     H      0.263140000000     0.350410000000     0.464040000000     0.0555163  
H120     H      0.127460000000     0.288260000000     0.507440000000     0.0329982  
H121     H      0.279020000000     0.172890000000     0.468780000000     0.0327856  
H122     H      0.193580000000     0.854260000000     0.494500000000     0.0479122  
H123     H      0.210100000000     0.667890000000     0.445270000000     0.0454157  
H124     H      0.317860000000     0.784380000000     0.547420000000     0.0426899  
H125     H      0.300220000000     0.734180000000     0.470520000000     0.0486728  
H126     H      0.256880000000     0.695210000000     0.520780000000     0.0504415  
H127     H      0.140530000000     0.799870000000     0.478150000000     0.0685255  
H128     H      0.263420000000     0.910860000000     0.509940000000     0.0385238  
H129     H      0.203360000000     0.627540000000     0.497060000000     0.0359926  
H130     H      0.301980000000     0.788730000000     0.435630000000     0.0624889  
H131     H      0.135910000000     0.765460000000     0.534000000000     0.0597943  
H132     H      0.365010000000     0.788340000000     0.501450000000     0.0445802  
H133     H      0.235800000000     0.856480000000     0.443960000000     0.0594822  
H134     H      0.201360000000     0.698870000000     0.553580000000     0.059486   
H135     H      0.082760000000     0.728010000000     0.474810000000     0.0245922  
H136     H      0.256320000000     0.863340000000     0.555070000000     0.0347317  
H137     H      0.671930000000     0.484840000000     0.275560000000     0.0432115  
H138     H      0.859150000000     0.402760000000     0.268720000000     0.0498226  
H139     H      0.719590000000     0.555310000000     0.151700000000     0.025357   
H140     H      0.782540000000     0.497190000000     0.162060000000     0.0429223  
H141     H      0.830900000000     0.453600000000     0.206750000000     0.0481303  
H142     H      0.721470000000     0.439740000000     0.316840000000     0.0680144  
H143     H      0.608030000000     0.502940000000     0.215110000000     0.0349972  
H144     H      0.897070000000     0.456370000000     0.270620000000     0.03681    
H145     H      0.743560000000     0.444600000000     0.151420000000     0.0572664  
H146     H      0.751410000000     0.498020000000     0.326890000000     0.0560218  
H147     H      0.717640000000     0.513160000000     0.100990000000     0.0357371  
H148     H      0.665430000000     0.436300000000     0.230790000000     0.0584696  
H149     H      0.833660000000     0.509440000000     0.242810000000     0.0493053  
H150     H      0.785610000000     0.440700000000     0.382060000000     0.024918   
H151     H      0.655400000000     0.548670000000     0.219520000000     0.0253906  
H152     H      0.215200000000     0.460650000000     0.177190000000     0.0600772  
H153     H      0.227150000000     0.458710000000     0.354900000000     0.0404647  
H154     H      0.350110000000     0.536070000000     0.223030000000     0.0309706  
H155     H      0.331680000000     0.474830000000     0.288220000000     0.0457884  
H156     H      0.287440000000     0.521610000000     0.328680000000     0.0468396  
H157     H      0.175510000000     0.515650000000     0.212310000000     0.0701409  
H158     H      0.277460000000     0.473810000000     0.112600000000     0.0378571  
H159     H      0.220910000000     0.514090000000     0.390210000000     0.036489   
H160     H      0.327530000000     0.426990000000     0.244830000000     0.0580607  
H161     H      0.179680000000     0.561560000000     0.257220000000     0.0770285  
H162     H      0.391740000000     0.484930000000     0.220860000000     0.0362903  
H163     H      0.264960000000     0.420100000000     0.183710000000     0.0632006  
H164     H      0.240940000000     0.565710000000     0.319850000000     0.0602426  
H165     H      0.112300000000     0.507760000000     0.277230000000     0.0352382  
H166     H      0.271770000000     0.528220000000     0.149770000000     0.0334468  
H167     H      0.207370000000     0.490460000000     0.828590000000     0.0489315  
H168     H      0.204870000000     0.590580000000     0.653840000000     0.0459609  
H169     H      0.334950000000     0.436270000000     0.776980000000     0.0285358  
H170     H      0.318980000000     0.495670000000     0.716500000000     0.0438575  
H171     H      0.271310000000     0.539940000000     0.672270000000     0.0484872  
H172     H      0.160230000000     0.533640000000     0.782490000000     0.0733753  
H173     H      0.271450000000     0.479510000000     0.891960000000     0.0418053  
H174     H      0.208640000000     0.544400000000     0.607340000000     0.0353522  
H175     H      0.325800000000     0.547490000000     0.757500000000     0.0579415  
H176     H      0.156420000000     0.477850000000     0.747170000000     0.0604651  
H177     H      0.382450000000     0.481970000000     0.778820000000     0.035942   
H178     H      0.245330000000     0.544200000000     0.837290000000     0.0731032  
H179     H      0.237850000000     0.482990000000     0.663870000000     0.0545447  
H180     H      0.095140000000     0.529900000000     0.716810000000     0.0265939  
H181     H      0.270330000000     0.434000000000     0.844140000000     0.0288092  
H182     H      0.770660000000     0.492350000000     0.815930000000     0.0583251  
H183     H      0.773570000000     0.439030000000     0.645140000000     0.0438282  
H184     H      0.643040000000     0.573430000000     0.773490000000     0.0337366  
H185     H      0.653020000000     0.517320000000     0.707250000000     0.0458256  
H186     H      0.704880000000     0.491010000000     0.655760000000     0.0489907  
H187     H      0.813720000000     0.533110000000     0.768060000000     0.0731689  
H188     H      0.712210000000     0.513470000000     0.880850000000     0.037517   
H189     H      0.772080000000     0.482720000000     0.596000000000     0.0363085  
H190     H      0.649940000000     0.463380000000     0.745790000000     0.0540036  
H191     H      0.807180000000     0.567780000000     0.714070000000     0.0775366  
H192     H      0.594780000000     0.528620000000     0.774850000000     0.0372696  
H193     H      0.719640000000     0.452540000000     0.814090000000     0.060935   
H194     H      0.739270000000     0.547270000000     0.648390000000     0.057831   
H195     H      0.878430000000     0.515160000000     0.708420000000     0.0336137  
H196     H      0.716320000000     0.563450000000     0.837590000000     0.0349227  
H197     H      0.768520000000     0.679460000000     0.000480000000     0.0447621  
H198     H      0.765620000000     0.862310000000     0.905410000000     0.0464526  
H199     H      0.638160000000     0.730030000000     0.058180000000     0.0257805  
H200     H      0.656460000000     0.791340000000     0.001220000000     0.04294    
H201     H      0.703140000000     0.837570000000     0.957040000000     0.0471085  
H202     H      0.811560000000     0.724250000000     0.951730000000     0.0697095  
H203     H      0.707060000000     0.616780000000     0.018430000000     0.0353018  
H204     H      0.768840000000     0.902600000000     0.956990000000     0.0348495  
H205     H      0.648040000000     0.752390000000     0.948280000000     0.054588   
H206     H      0.821560000000     0.759390000000     0.006910000000     0.0573391  
H207     H      0.592250000000     0.726300000000     0.011070000000     0.0351619  
H208     H      0.727550000000     0.669870000000     0.949210000000     0.059453   
H209     H      0.738960000000     0.842470000000     0.012570000000     0.04964    
H210     H      0.877090000000     0.786880000000     0.945670000000     0.0240884  
H211     H      0.707160000000     0.667840000000     0.060200000000     0.0250771  
H212     H      0.718880000000     0.183020000000     0.025140000000     0.0654944  
H213     H      0.722460000000     0.360090000000     0.042990000000     0.0431072  
H214     H      0.855290000000     0.232440000000     0.955630000000     0.0491201  
H215     H      0.837830000000     0.293000000000     0.020790000000     0.0486731  
H216     H      0.790560000000     0.341860000000     0.987550000000     0.0505184  
H217     H      0.683170000000     0.221450000000     0.969460000000     0.0651007  
H218     H      0.779570000000     0.118490000000     0.005450000000     0.0478348  
H219     H      0.721820000000     0.400450000000     0.990960000000     0.0348914  
H220     H      0.832250000000     0.246270000000     0.065450000000     0.0587911  
H221     H      0.690630000000     0.270180000000     0.928020000000     0.0604114  
H222     H      0.896590000000     0.225370000000     0.006370000000     0.0452906  
H223     H      0.768600000000     0.184660000000     0.066000000000     0.0767258  
H224     H      0.751180000000     0.335750000000     0.936350000000     0.0579535  
H225     H      0.617210000000     0.283890000000     0.975290000000     0.0228761  
H226     H      0.776280000000     0.161680000000     0.955520000000     0.0345069  
H227     H      0.151430000000     0.701410000000     0.977280000000     0.0549704  
H228     H      0.334470000000     0.717980000000     0.967110000000     0.0402707  
H229     H      0.207820000000     0.834030000000     0.043420000000     0.0479873  
H230     H      0.270570000000     0.811420000000     0.979210000000     0.0489653  
H231     H      0.303890000000     0.772010000000     0.035710000000     0.0526447  
H232     H      0.196610000000     0.652560000000     0.013470000000     0.067602   
H233     H      0.091860000000     0.769480000000     0.984690000000     0.0390594  
H234     H      0.370530000000     0.711890000000     0.021940000000     0.0356308  
H235     H      0.224320000000     0.808820000000     0.934410000000     0.0594006  
H236     H      0.237050000000     0.656850000000     0.063520000000     0.0615512  
H237     H      0.208690000000     0.876230000000     0.992600000000     0.0425249  
H238     H      0.160410000000     0.746610000000     0.931560000000     0.0636233  
H239     H      0.297770000000     0.720360000000     0.074000000000     0.0593966  
H240     H      0.266650000000     0.594350000000     0.008610000000     0.0251592  
H241     H      0.128860000000     0.763710000000     0.038810000000     0.0369907  
H242     H      0.341980000000     0.202240000000     0.001300000000     0.0514371  
H243     H      0.157160000000     0.215320000000     0.061920000000     0.0453005  
H244     H      0.271370000000     0.330940000000     0.957840000000     0.0290846  
H245     H      0.226880000000     0.311230000000     0.037330000000     0.0491398  
H246     H      0.182120000000     0.269350000000     0.991450000000     0.0467839  
H247     H      0.288580000000     0.149810000000     0.019490000000     0.0698449  
H248     H      0.397830000000     0.270760000000     0.982100000000     0.0425678  
H249     H      0.115930000000     0.211980000000     0.010610000000     0.0364329  
H250     H      0.283490000000     0.310310000000     0.068270000000     0.0638924  
H251     H      0.252220000000     0.148950000000     0.964650000000     0.0568357  
H252     H      0.280600000000     0.376140000000     0.005240000000     0.0378745  
H253     H      0.348750000000     0.243370000000     0.052380000000     0.0765504  
H254     H      0.185040000000     0.217610000000     0.952510000000     0.0535592  
H255     H      0.218840000000     0.091550000000     0.022800000000     0.0254464  
H256     H      0.346130000000     0.266830000000     0.941660000000     0.0287128  
H257     H      0.785160000000     0.974880000000     0.656230000000     0.0457006  
H258     H      0.788540000000     0.084530000000     0.823070000000     0.0484559  
H259     H      0.658790000000     0.923280000000     0.708470000000     0.0330821  
H260     H      0.676250000000     0.981650000000     0.769390000000     0.0444181  
H261     H      0.722630000000     0.030470000000     0.810990000000     0.0479036  
H262     H      0.833010000000     0.021190000000     0.699700000000     0.0700071  
H263     H      0.719530000000     0.966480000000     0.592880000000     0.0365187  
H264     H      0.785350000000     0.043000000000     0.873770000000     0.0371012  
H265     H      0.667810000000     0.034160000000     0.729430000000     0.0559805  
H266     H      0.837810000000     0.967160000000     0.737390000000     0.0615891  
H267     H      0.611040000000     0.968750000000     0.708360000000     0.0370896  
H268     H      0.749200000000     0.029900000000     0.646660000000     0.0572619  
H269     H      0.758560000000     0.975490000000     0.821960000000     0.0571562  
H270     H      0.898910000000     0.020110000000     0.765790000000     0.0263443  
H271     H      0.720610000000     0.920700000000     0.640410000000     0.032954   
H272     H      0.225010000000     0.997370000000     0.681510000000     0.0600885  
H273     H      0.223250000000     0.949970000000     0.850840000000     0.0432001  
H274     H      0.354150000000     0.078270000000     0.723220000000     0.0285152  
H275     H      0.344770000000     0.020430000000     0.788580000000     0.0440116  
H276     H      0.291520000000     0.003180000000     0.841550000000     0.0470272  
H277     H      0.185540000000     0.045260000000     0.726460000000     0.0645541  
H278     H      0.281610000000     0.021580000000     0.616090000000     0.0373448  
H279     H      0.222370000000     0.994430000000     0.899310000000     0.036433   
H280     H      0.346040000000     0.967720000000     0.748540000000     0.0560255  
H281     H      0.190470000000     0.078360000000     0.781520000000     0.0592366  
H282     H      0.401710000000     0.032820000000     0.719790000000     0.0358732  
H283     H      0.276870000000     0.958740000000     0.681890000000     0.0638937  
H284     H      0.255920000000     0.058680000000     0.847140000000     0.0510708  
H285     H      0.119160000000     0.025470000000     0.783880000000     0.0247223  
H286     H      0.278870000000     0.070210000000     0.660930000000     0.0304426  
H287     H      0.307440000000     0.956710000000     0.228010000000     0.0671351  
H288     H      0.131240000000     0.922640000000     0.222310000000     0.0471961  
H289     H      0.266870000000     0.057040000000     0.345150000000     0.0328638  
H290     H      0.199920000000     0.000620000000     0.341120000000     0.046993   
H291     H      0.147440000000     0.975350000000     0.289180000000     0.0503615  
H292     H      0.265220000000     0.999740000000     0.181040000000     0.0728938  
H293     H      0.372980000000     0.987050000000     0.281350000000     0.0467782  
H294     H      0.087730000000     0.971930000000     0.220650000000     0.0362712  
H295     H      0.237960000000     0.947230000000     0.350280000000     0.0584013  
H296     H      0.215380000000     0.040670000000     0.184330000000     0.0771067  
H297     H      0.268920000000     0.017260000000     0.397600000000     0.0382267  
H298     H      0.304920000000     0.926700000000     0.285170000000     0.0802269  
H299     H      0.146370000000     0.030950000000     0.252900000000     0.0568233  
H300     H      0.205770000000     0.984440000000     0.115960000000     0.0301845  
H301     H      0.330090000000     0.036350000000     0.270790000000     0.0333547  
H302     H      0.643780000000     0.980270000000     0.200170000000     0.0464704  
H303     H      0.830270000000     0.030200000000     0.213190000000     0.0445563  
H304     H      0.711760000000     0.930350000000     0.327780000000     0.0261813  
H305     H      0.764810000000     0.003280000000     0.305710000000     0.0469769  
H306     H      0.803640000000     0.954950000000     0.260480000000     0.0452024  
H307     H      0.696330000000     0.996510000000     0.146370000000     0.0676259  
H308     H      0.587940000000     0.966640000000     0.269310000000     0.0372548  
H309     H      0.869550000000     0.977820000000     0.204350000000     0.0347584  
H310     H      0.712760000000     0.041660000000     0.305960000000     0.0603462  
H311     H      0.731420000000     0.941020000000     0.141140000000     0.0546947  
H312     H      0.708570000000     0.979460000000     0.372100000000     0.0355804  
H313     H      0.642960000000     0.032490000000     0.240800000000     0.0596656  
H314     H      0.798510000000     0.921630000000     0.205290000000     0.0506732  
H315     H      0.765830000000     0.001790000000     0.087440000000     0.0228558  
H316     H      0.635850000000     0.921650000000     0.265210000000     0.0263958  
H317     H      0.999930000000     0.350790000000     0.794640000000     0.0552341  
H318     H      0.978000000000     0.164310000000     0.777700000000     0.0567829  
H319     H      0.057080000000     0.287270000000     0.664340000000     0.0463913  
H320     H      0.991370000000     0.226740000000     0.690130000000     0.0549337  
H321     H      0.050300000000     0.195270000000     0.728540000000     0.0518099  
H322     H      0.019420000000     0.300330000000     0.847960000000     0.066706   
H323     H      0.003870000000     0.407600000000     0.724180000000     0.0451265  
H324     H      0.031880000000     0.126980000000     0.785630000000     0.0415768  
H325     H      0.948150000000     0.274860000000     0.691800000000     0.066513   
H326     H      0.071120000000     0.261000000000     0.846430000000     0.056813   
H327     H      0.005830000000     0.285290000000     0.622850000000     0.0449452  
H328     H      0.949760000000     0.342340000000     0.753730000000     0.0750094  
H329     H      0.085280000000     0.199650000000     0.782530000000     0.0545275  
H330     H      0.013010000000     0.228700000000     0.904340000000     0.0235544  
H331     H      0.056940000000     0.368860000000     0.729000000000     0.0339352  
H332     H      0.949440000000     0.735150000000     0.799230000000     0.0678756  
H333     H      0.918010000000     0.727550000000     0.625450000000     0.0453608  
H334     H      0.046580000000     0.856630000000     0.758150000000     0.0445087  
H335     H      0.989050000000     0.850760000000     0.692400000000     0.0481058  
H336     H      0.969070000000     0.796540000000     0.639720000000     0.0489785  
H337     H      0.998380000000     0.691250000000     0.759410000000     0.0735462  
H338     H      0.981200000000     0.787620000000     0.864820000000     0.0437215  
H339     H      0.966760000000     0.726120000000     0.581550000000     0.0360282  
H340     H      0.936590000000     0.857840000000     0.731670000000     0.0577046  
H341     H      0.037600000000     0.694740000000     0.708390000000     0.0779267  
H342     H      0.004730000000     0.907370000000     0.762440000000     0.0463515  
H343     H      0.919410000000     0.792540000000     0.798170000000     0.0804874  
H344     H      0.025130000000     0.761340000000     0.639040000000     0.0562045  
H345     H      0.983660000000     0.624070000000     0.701740000000     0.0321338  
H346     H      0.029280000000     0.778910000000     0.820420000000     0.035236   
H347     H      0.980810000000     0.695650000000     0.137240000000     0.0469109  
H348     H      0.025350000000     0.712550000000     0.323840000000     0.0589607  
H349     H      0.930770000000     0.823790000000     0.204080000000     0.0258857  
H350     H      0.002840000000     0.801460000000     0.258350000000     0.0512827  
H351     H      0.950180000000     0.758830000000     0.295100000000     0.045656   
H352     H      0.991920000000     0.641420000000     0.191110000000     0.0670547  
H353     H      0.971800000000     0.766070000000     0.080450000000     0.0369295  
H354     H      0.972910000000     0.704270000000     0.362900000000     0.0394072  
H355     H      0.041440000000     0.801260000000     0.206540000000     0.0659388  
H356     H      0.937010000000     0.637460000000     0.226710000000     0.0545985  
H357     H      0.979760000000     0.868140000000     0.202340000000     0.036746   
H358     H      0.033460000000     0.735460000000     0.137980000000     0.0613628  
H359     H      0.917620000000     0.702930000000     0.291380000000     0.0497322  
H360     H      0.997460000000     0.584240000000     0.262470000000     0.0240607  
H361     H      0.924010000000     0.761510000000     0.125400000000     0.0263621  
H362     H      0.978820000000     0.152170000000     0.289270000000     0.0491973  
H363     H      0.082850000000     0.321120000000     0.291200000000     0.0605243  
H364     H      0.921380000000     0.203360000000     0.166510000000     0.0357344  
H365     H      0.978170000000     0.266810000000     0.181140000000     0.0468706  
H366     H      0.027810000000     0.309330000000     0.225870000000     0.0527263  
H367     H      0.023940000000     0.197810000000     0.336580000000     0.0737404  
H368     H      0.972880000000     0.088380000000     0.222690000000     0.0376018  
H369     H      0.041620000000     0.372210000000     0.287680000000     0.0521577  
H370     H      0.031290000000     0.228270000000     0.170550000000     0.0579047  
H371     H      0.968620000000     0.233120000000     0.342010000000     0.0786127  
H372     H      0.963870000000     0.206060000000     0.116370000000     0.0389536  
H373     H      0.033140000000     0.145160000000     0.252110000000     0.0572574  
H374     H      0.973750000000     0.319370000000     0.263170000000     0.06218    
H375     H      0.019190000000     0.265230000000     0.402590000000     0.0332996  
H376     H      0.924340000000     0.132980000000     0.226320000000     0.0367994  
N1       N      0.508170000000     0.328170000000     0.149260000000    -0.177501   
N2       N      0.507350000000     0.150480000000     0.325650000000    -0.172155   
N3       N      0.461700000000     0.829710000000     0.343480000000    -0.180557   
N4       N      0.486140000000     0.651240000000     0.165560000000    -0.173817   
N5       N      0.485000000000     0.844200000000     0.664370000000    -0.178065   
N6       N      0.484200000000     0.667270000000     0.842870000000    -0.172097   
N7       N      0.524520000000     0.165540000000     0.646970000000    -0.179899   
N8       N      0.496840000000     0.344650000000     0.827550000000    -0.173061   
N9       N      0.851690000000     0.318340000000     0.495100000000    -0.176797   
N10      N      0.672390000000     0.141660000000     0.483800000000    -0.169917   
N11      N      0.639500000000     0.821670000000     0.510280000000    -0.180351   
N12      N      0.820280000000     0.637460000000     0.459400000000    -0.173416   
N13      N      0.172310000000     0.352960000000     0.519480000000    -0.179173   
N14      N      0.351320000000     0.174990000000     0.498280000000    -0.172711   
N15      N      0.140060000000     0.673070000000     0.479630000000    -0.178398   
N16      N      0.318420000000     0.852950000000     0.509500000000    -0.170004   
N17      N      0.844890000000     0.448790000000     0.329980000000    -0.179196   
N18      N      0.658970000000     0.506770000000     0.154190000000    -0.173018   
N19      N      0.162800000000     0.499560000000     0.337870000000    -0.177271   
N20      N      0.337920000000     0.488500000000     0.162200000000    -0.172496   
N21      N      0.148130000000     0.537260000000     0.658480000000    -0.179984   
N22      N      0.330720000000     0.482610000000     0.839200000000    -0.171967   
N23      N      0.830060000000     0.492520000000     0.649640000000    -0.179028   
N24      N      0.649990000000     0.522700000000     0.832120000000    -0.172738   
N25      N      0.826680000000     0.848150000000     0.951570000000    -0.180993   
N26      N      0.645990000000     0.667690000000     0.012410000000    -0.173745   
N27      N      0.664300000000     0.345340000000     0.993180000000    -0.180191   
N28      N      0.841650000000     0.168030000000     0.997770000000    -0.168487   
N29      N      0.323300000000     0.650030000000     0.004580000000    -0.179075   
N30      N      0.146040000000     0.826940000000     0.996190000000    -0.170184   
N31      N      0.162950000000     0.148370000000     0.021530000000    -0.179882   
N32      N      0.342340000000     0.327710000000     0.990180000000    -0.172172   
N33      N      0.845840000000     0.031530000000     0.823280000000    -0.179026   
N34      N      0.661610000000     0.970810000000     0.647030000000    -0.172062   
N35      N      0.165930000000     0.002290000000     0.843740000000    -0.180381   
N36      N      0.345110000000     0.028920000000     0.663680000000    -0.173596   
N37      N      0.143410000000     0.972610000000     0.163770000000    -0.178752   
N38      N      0.325390000000     0.005770000000     0.342500000000    -0.171369   
N39      N      0.822250000000     0.996630000000     0.142990000000    -0.179905   
N40      N      0.644920000000     0.970630000000     0.325070000000    -0.173741   
N41      N      0.012150000000     0.173150000000     0.847450000000    -0.177525   
N42      N      0.010910000000     0.350340000000     0.669010000000    -0.169342   
N43      N      0.969300000000     0.670290000000     0.638510000000    -0.178896   
N44      N      0.997380000000     0.850460000000     0.818000000000    -0.169978   
N45      N      0.992530000000     0.641590000000     0.317400000000    -0.177653   
N46      N      0.972110000000     0.821530000000     0.137920000000    -0.173205   
N47      N      0.030530000000     0.322280000000     0.348870000000    -0.176733   
N48      N      0.971460000000     0.143820000000     0.165710000000    -0.171713   
O1       O      0.987260000000     0.128780000000     0.084720000000    -0.37596    
O2       O      0.978930000000     0.850510000000     0.059120000000    -0.378247   
O3       O      0.904270000000     0.990000000000     0.126080000000    -0.377489   
O4       O      0.063650000000     0.979740000000     0.137340000000    -0.377282   
O5       O      0.126630000000     0.981860000000     0.081950000000    -0.369277   
O6       O      0.849440000000     0.000240000000     0.063390000000    -0.374363   
O7       O      0.980020000000     0.904360000000     0.123680000000    -0.377617   
O8       O      0.981810000000     0.064500000000     0.138810000000    -0.375298   
O9       O      0.037250000000     0.940250000000     0.041180000000    -0.508815   
O10      O      0.943920000000     0.045100000000     0.043350000000    -0.507161   
O11      O      0.937600000000     0.945750000000     0.034620000000    -0.650797   
O12      O      0.042390000000     0.040120000000     0.051000000000    -0.652718   
O13      O      0.992780000000     0.865720000000     0.900480000000    -0.374391   
O14      O      0.006080000000     0.144010000000     0.926200000000    -0.372907   
O15      O      0.851160000000     0.926800000000     0.970160000000    -0.38004    
O16      O      0.128300000000     0.909450000000     0.997630000000    -0.37244    
O17      O      0.136520000000     0.069010000000     0.011200000000    -0.376299   
O18      O      0.859400000000     0.085620000000     0.993010000000    -0.370679   
O19      O      0.924580000000     0.016930000000     0.849010000000    -0.371408   
O20      O      0.083830000000     0.006320000000     0.860540000000    -0.373891   
O21      O      0.861650000000     0.017470000000     0.904540000000    -0.377105   
O22      O      0.138710000000     0.996310000000     0.923220000000    -0.378435   
O23      O      0.907420000000     0.864320000000     0.968200000000    -0.376111   
O24      O      0.921610000000     0.141780000000     0.999720000000    -0.370217   
O25      O      0.080900000000     0.132120000000     0.011960000000    -0.380373   
O26      O      0.066330000000     0.853300000000     0.988860000000    -0.374673   
O27      O      0.999740000000     0.930010000000     0.846620000000    -0.371945   
O28      O      0.009300000000     0.089920000000     0.861890000000    -0.371668   
O29      O      0.049860000000     0.048910000000     0.951380000000    -0.510927   
O30      O      0.945500000000     0.955310000000     0.935630000000    -0.507677   
O31      O      0.950700000000     0.054590000000     0.944810000000    -0.656917   
O32      O      0.044640000000     0.949170000000     0.942260000000    -0.654694   
O33      O      0.016900000000     0.349550000000     0.427310000000    -0.366981   
O34      O      0.987540000000     0.626970000000     0.400070000000    -0.372655   
O35      O      0.923500000000     0.469010000000     0.352530000000    -0.377019   
O36      O      0.081510000000     0.493590000000     0.357770000000    -0.365485   
O37      O      0.138560000000     0.503450000000     0.418540000000    -0.375984   
O38      O      0.862490000000     0.466950000000     0.410110000000    -0.37252    
O39      O      0.996270000000     0.562450000000     0.346800000000    -0.373589   
O40      O      0.015180000000     0.403890000000     0.363170000000    -0.372658   
O41      O      0.042610000000     0.545950000000     0.441010000000    -0.50532    
O42      O      0.953990000000     0.436700000000     0.447210000000    -0.506566   
O43      O      0.943480000000     0.535260000000     0.437060000000    -0.653998   
O44      O      0.053110000000     0.447070000000     0.450580000000    -0.655571   
O45      O      0.975860000000     0.641990000000     0.559310000000    -0.377309   
O46      O      0.007580000000     0.364390000000     0.586180000000    -0.373803   
O47      O      0.848750000000     0.559900000000     0.477190000000    -0.378963   
O48      O      0.125980000000     0.590380000000     0.488850000000    -0.376123   
O49      O      0.142940000000     0.431560000000     0.509300000000    -0.377648   
O50      O      0.865580000000     0.401570000000     0.495160000000    -0.372828   
O51      O      0.911280000000     0.500180000000     0.629700000000    -0.370469   
O52      O      0.069310000000     0.520080000000     0.634700000000    -0.372892   
O53      O      0.854430000000     0.488470000000     0.569100000000    -0.378153   
O54      O      0.130790000000     0.521660000000     0.577640000000    -0.378293   
O55      O      0.902170000000     0.624790000000     0.472420000000    -0.378802   
O56      O      0.930470000000     0.348270000000     0.499360000000    -0.368445   
O57      O      0.089820000000     0.366320000000     0.510960000000    -0.368004   
O58      O      0.061180000000     0.643290000000     0.480580000000    -0.370436   
O59      O      0.980590000000     0.588030000000     0.623620000000    -0.369084   
O60      O      0.001800000000     0.429110000000     0.639670000000    -0.371217   
O61      O      0.048660000000     0.455980000000     0.549240000000    -0.508092   
O62      O      0.939310000000     0.544850000000     0.536660000000    -0.507711   
O63      O      0.949460000000     0.445210000000     0.546290000000    -0.655242   
O64      O      0.038180000000     0.555470000000     0.539560000000    -0.65521    
O65      O      0.565970000000     0.980630000000     0.351680000000    -0.379309   
O66      O      0.581410000000     0.988120000000     0.629300000000    -0.376209   
O67      O      0.642170000000     0.062780000000     0.486140000000    -0.378921   
O68      O      0.624740000000     0.903550000000     0.497220000000    -0.378155   
O69      O      0.560360000000     0.849810000000     0.503120000000    -0.372073   
O70      O      0.589260000000     0.128190000000     0.484150000000    -0.371831   
O71      O      0.637470000000     0.981080000000     0.567210000000    -0.373783   
O72      O      0.628810000000     0.979160000000     0.407280000000    -0.379994   
O73      O      0.541630000000     0.945590000000     0.543930000000    -0.50885    
O74      O      0.546790000000     0.039700000000     0.439740000000    -0.509715   
O75      O      0.552640000000     0.044200000000     0.539650000000    -0.6527     
O76      O      0.536770000000     0.939620000000     0.445050000000    -0.650995   
O77      O      0.423960000000     0.016520000000     0.637750000000    -0.379109   
O78      O      0.407270000000     0.998230000000     0.360260000000    -0.372536   
O79      O      0.515210000000     0.139930000000     0.567430000000    -0.3747     
O80      O      0.485010000000     0.862300000000     0.582250000000    -0.366444   
O81      O      0.473280000000     0.854870000000     0.422870000000    -0.379731   
O82      O      0.506480000000     0.132480000000     0.407750000000    -0.378343   
O83      O      0.365550000000     0.091970000000     0.500090000000    -0.378297   
O84      O      0.347890000000     0.932130000000     0.505760000000    -0.375943   
O85      O      0.430060000000     0.145390000000     0.492820000000    -0.37721    
O86      O      0.401120000000     0.866980000000     0.505120000000    -0.371485   
O87      O      0.512650000000     0.083630000000     0.629840000000    -0.379436   
O88      O      0.497900000000     0.070500000000     0.351480000000    -0.37584    
O89      O      0.476240000000     0.911140000000     0.360470000000    -0.372301   
O90      O      0.492390000000     0.924390000000     0.638550000000    -0.376886   
O91      O      0.361320000000     0.017630000000     0.581950000000    -0.377569   
O92      O      0.351730000000     0.008330000000     0.422380000000    -0.377037   
O93      O      0.437770000000     0.950720000000     0.450660000000    -0.508477   
O94      O      0.453580000000     0.054640000000     0.544310000000    -0.508562   
O95      O      0.447790000000     0.050120000000     0.445200000000    -0.651505   
O96      O      0.442870000000     0.955090000000     0.550090000000    -0.653176   
O97      O      0.359800000000     0.409970000000     0.996400000000    -0.37809    
O98      O      0.638170000000     0.425760000000     0.993310000000    -0.378039   
O99      O      0.499910000000     0.362320000000     0.909740000000    -0.377435   
O100     O      0.503970000000     0.354330000000     0.069420000000    -0.367117   
O101     O      0.503890000000     0.410820000000     0.131740000000    -0.377669   
O102     O      0.494460000000     0.424820000000     0.853690000000    -0.378165   
O103     O      0.582150000000     0.363060000000     0.990480000000    -0.371159   
O104     O      0.422220000000     0.354060000000     0.989540000000    -0.372301   
O105     O      0.548270000000     0.448490000000     0.042810000000    -0.506821   
O106     O      0.446450000000     0.448090000000     0.946110000000    -0.510758   
O107     O      0.545950000000     0.453280000000     0.943040000000    -0.652806   
O108     O      0.448530000000     0.442630000000     0.045290000000    -0.653084   
O109     O      0.628270000000     0.586160000000     0.001120000000    -0.377543   
O110     O      0.350230000000     0.570050000000     0.001810000000    -0.37295    
O111     O      0.570180000000     0.512930000000     0.856170000000    -0.379172   
O112     O      0.577850000000     0.497960000000     0.134000000000    -0.377958   
O113     O      0.418370000000     0.489750000000     0.138050000000    -0.378303   
O114     O      0.411280000000     0.494990000000     0.859480000000    -0.376496   
O115     O      0.486920000000     0.641780000000     0.923100000000    -0.377195   
O116     O      0.485530000000     0.633530000000     0.083380000000    -0.377501   
O117     O      0.485680000000     0.584840000000     0.861220000000    -0.378153   
O118     O      0.492660000000     0.571280000000     0.139530000000    -0.377871   
O119     O      0.631370000000     0.512430000000     0.913600000000    -0.378905   
O120     O      0.353410000000     0.488780000000     0.919950000000    -0.371788   
O121     O      0.357450000000     0.488990000000     0.080340000000    -0.376809   
O122     O      0.635640000000     0.504070000000     0.073450000000    -0.374851   
O123     O      0.566000000000     0.642620000000     0.005040000000    -0.377401   
O124     O      0.405840000000     0.633140000000     0.004640000000    -0.376813   
O125     O      0.443230000000     0.542580000000     0.049910000000    -0.507636   
O126     O      0.539900000000     0.553360000000     0.948410000000    -0.507945   
O127     O      0.439950000000     0.547720000000     0.950160000000    -0.653779   
O128     O      0.541900000000     0.548260000000     0.047330000000    -0.652985   
Zr1      Zr     0.986760000000     0.988150000000     0.091510000000     1.42903    
Zr2      Zr     0.988740000000     0.898520000000     0.983790000000     1.42757    
Zr3      Zr     0.999090000000     0.096440000000     0.002060000000     1.43492    
Zr4      Zr     0.895330000000     0.003410000000     0.986330000000     1.43382    
Zr5      Zr     0.092290000000     0.991790000000     0.999880000000     1.43276    
Zr6      Zr     0.001190000000     0.006360000000     0.894520000000     1.43657    
Zr7      Zr     0.000610000000     0.486620000000     0.395040000000     1.43968    
Zr8      Zr     0.985720000000     0.594390000000     0.483570000000     1.43001    
Zr9      Zr     0.006110000000     0.397110000000     0.502730000000     1.43786    
Zr10     Zr     0.897640000000     0.485340000000     0.490400000000     1.42913    
Zr11     Zr     0.094700000000     0.506520000000     0.496930000000     1.43294    
Zr12     Zr     0.992110000000     0.504820000000     0.591750000000     1.43543    
Zr13     Zr     0.593350000000     0.987220000000     0.489470000000     1.42875    
Zr14     Zr     0.500420000000     0.002080000000     0.593690000000     1.43248    
Zr15     Zr     0.489320000000     0.992660000000     0.396170000000     1.42818    
Zr16     Zr     0.505410000000     0.096300000000     0.489730000000     1.4279     
Zr17     Zr     0.484820000000     0.898560000000     0.500240000000     1.43635    
Zr18     Zr     0.396580000000     0.007740000000     0.500100000000     1.42923    
Zr19     Zr     0.500000000000     0.398860000000     0.991710000000     1.43357    
Zr20     Zr     0.593190000000     0.503750000000     0.994460000000     1.42696    
Zr21     Zr     0.395410000000     0.492390000000     0.999100000000     1.43195    
Zr22     Zr     0.491750000000     0.502960000000     0.897990000000     1.42921    
Zr23     Zr     0.497000000000     0.493070000000     0.095490000000     1.43083    
Zr24     Zr     0.488310000000     0.597520000000     0.001290000000     1.42848    


