data_structure

_audit_creation_method RASPA-1.0
_audit_creation_date 2023-5-25
_audit_author_name 'Poobodin Mano'

_cell_length_a    27.2977
_cell_length_b    27.2584
_cell_length_c    27.1407
_cell_angle_alpha 90
_cell_angle_beta  90
_cell_angle_gamma 90
_cell_volume      20195.2

_symmetry_cell_setting          triclinic
_symmetry_space_group_name_Hall 'P 1'
_symmetry_space_group_name_H-M  'P 1'
_symmetry_Int_Tables_number     1

_symmetry_equiv_pos_as_xyz 'x,y,z'

loop_
_atom_site_label
_atom_site_type_symbol
_atom_site_fract_x
_atom_site_fract_y
_atom_site_fract_z
_atom_site_charge
C1       C      0.984450000000     0.115730000000     0.127540000000     0.396534   
C2       C      0.987430000000     0.865360000000     0.117150000000     0.398167   
C3       C      0.862750000000     0.989150000000     0.114980000000     0.394136   
C4       C      0.112980000000     0.995010000000     0.129410000000     0.396372   
C5       C      0.005240000000     0.875020000000     0.866420000000     0.394047   
C6       C      0.997250000000     0.125130000000     0.876740000000     0.399616   
C7       C      0.873510000000     0.865790000000     0.985420000000     0.390729   
C8       C      0.122700000000     0.873870000000     0.005040000000     0.399286   
C9       C      0.115090000000     0.124220000000     0.000090000000     0.401275   
C10      C      0.866030000000     0.116030000000     0.988730000000     0.398734   
C11      C      0.877330000000     0.001040000000     0.864160000000     0.400242   
C12      C      0.126880000000     0.004800000000     0.878700000000     0.393676   
C13      C      0.995080000000     0.362510000000     0.376760000000     0.392473   
C14      C      0.017020000000     0.611730000000     0.365220000000     0.397741   
C15      C      0.876180000000     0.490400000000     0.361570000000     0.397859   
C16      C      0.125820000000     0.486060000000     0.378890000000     0.393946   
C17      C      0.985090000000     0.626420000000     0.614380000000     0.398024   
C18      C      0.981500000000     0.376860000000     0.627740000000     0.393808   
C19      C      0.871170000000     0.622810000000     0.479580000000     0.395704   
C20      C      0.120980000000     0.616780000000     0.497010000000     0.391773   
C21      C      0.113960000000     0.367270000000     0.513320000000     0.395091   
C22      C      0.864760000000     0.372310000000     0.488630000000     0.397932   
C23      C      0.859970000000     0.506520000000     0.612120000000     0.393016   
C24      C      0.109020000000     0.494700000000     0.629470000000     0.397222   
C25      C      0.612340000000     0.008130000000     0.364100000000     0.397965   
C26      C      0.362310000000     0.998520000000     0.375870000000     0.389992   
C27      C      0.494130000000     0.878870000000     0.356330000000     0.397885   
C28      C      0.481620000000     0.128210000000     0.383950000000     0.391146   
C29      C      0.375420000000     0.972070000000     0.626020000000     0.397626   
C30      C      0.625250000000     0.971810000000     0.612380000000     0.393204   
C31      C      0.371750000000     0.861630000000     0.488340000000     0.397072   
C32      C      0.365980000000     0.109830000000     0.517260000000     0.39865    
C33      C      0.615570000000     0.117760000000     0.506380000000     0.394933   
C34      C      0.621870000000     0.869050000000     0.474820000000     0.391177   
C35      C      0.500390000000     0.852130000000     0.606610000000     0.393541   
C36      C      0.505020000000     0.101620000000     0.632870000000     0.397552   
C37      C      0.362820000000     0.376850000000     0.030190000000     0.396665   
C38      C      0.370580000000     0.623240000000     0.987440000000     0.396749   
C39      C      0.374930000000     0.513300000000     0.130180000000     0.39705    
C40      C      0.356240000000     0.488450000000     0.880710000000     0.392574   
C41      C      0.620010000000     0.613090000000     0.972900000000     0.394675   
C42      C      0.611270000000     0.365620000000     0.010850000000     0.39346    
C43      C      0.503120000000     0.632160000000     0.107730000000     0.392119   
C44      C      0.484330000000     0.604970000000     0.858420000000     0.397095   
C45      C      0.473020000000     0.355830000000     0.885910000000     0.391115   
C46      C      0.494550000000     0.382530000000     0.135180000000     0.395314   
C47      C      0.624720000000     0.505920000000     0.111960000000     0.393941   
C48      C      0.604920000000     0.471540000000     0.863160000000     0.397788   
C49      C      0.467970000000     0.217570000000     0.370850000000     0.00907455 
C50      C      0.493420000000     0.296550000000     0.164850000000     0.0172348  
C51      C      0.507650000000     0.367030000000     0.224660000000     0.103441   
C52      C      0.460050000000     0.272140000000     0.202500000000    -0.107142   
C53      C      0.496650000000     0.256870000000     0.341940000000    -0.0997455  
C54      C      0.479010000000     0.338310000000     0.264690000000    -0.126211   
C55      C      0.492490000000     0.248220000000     0.286820000000     0.0160925  
C56      C      0.478330000000     0.283620000000     0.253810000000     0.0313407  
C57      C      0.474070000000     0.159660000000     0.298420000000     0.0109048  
C58      C      0.506600000000     0.196580000000     0.271740000000    -0.100211   
C59      C      0.609660000000     0.357990000000     0.240790000000     0.0289057  
C60      C      0.506270000000     0.662690000000     0.193450000000     0.0109699  
C61      C      0.504190000000     0.865840000000     0.266500000000     0.0158769  
C62      C      0.499440000000     0.793340000000     0.326400000000     0.107216   
C63      C      0.479000000000     0.834450000000     0.226870000000    -0.107835   
C64      C      0.536600000000     0.701960000000     0.219330000000    -0.100889   
C65      C      0.472710000000     0.764310000000     0.286270000000    -0.128283   
C66      C      0.517100000000     0.751810000000     0.204980000000     0.0187337  
C67      C      0.489860000000     0.780750000000     0.235920000000     0.0335465  
C68      C      0.495150000000     0.721730000000     0.121220000000     0.00934151 
C69      C      0.523060000000     0.761210000000     0.150340000000    -0.1011     
C70      C      0.598910000000     0.764740000000     0.331510000000     0.0299784  
C71      C      0.502670000000     0.821660000000     0.692690000000     0.0121959  
C72      C      0.468640000000     0.619600000000     0.769440000000     0.0155962  
C73      C      0.485690000000     0.690680000000     0.828140000000     0.107517   
C74      C      0.497060000000     0.646210000000     0.728410000000    -0.107285   
C75      C      0.466810000000     0.786970000000     0.717880000000    -0.100937   
C76      C      0.516290000000     0.714940000000     0.787710000000    -0.12839    
C77      C      0.479670000000     0.734760000000     0.704130000000     0.0172366  
C78      C      0.496860000000     0.701080000000     0.737350000000     0.0332632  
C79      C      0.508860000000     0.762340000000     0.621110000000     0.009592   
C80      C      0.476410000000     0.725440000000     0.649100000000    -0.100529   
C81      C      0.390960000000     0.732570000000     0.832250000000     0.0305673  
C82      C      0.448730000000     0.326330000000     0.803100000000     0.0131765  
C83      C      0.517880000000     0.118230000000     0.722190000000     0.0172045  
C84      C      0.524400000000     0.186160000000     0.660040000000     0.108709   
C85      C      0.491360000000     0.152430000000     0.758760000000    -0.104698   
C86      C      0.479890000000     0.296560000000     0.767470000000    -0.0984929  
C87      C      0.493120000000     0.220440000000     0.691600000000    -0.128526   
C88      C      0.483460000000     0.242440000000     0.781540000000     0.0133857  
C89      C      0.492880000000     0.207150000000     0.746190000000     0.0325172  
C90      C      0.460190000000     0.266480000000     0.871050000000     0.01102    
C91      C      0.487250000000     0.230630000000     0.836590000000    -0.0978361  
C92      C      0.625370000000     0.203330000000     0.676600000000     0.0340949  
C93      C      0.702950000000     0.143470000000     0.509480000000     0.011089   
C94      C      0.777670000000     0.351740000000     0.472250000000     0.0162688  
C95      C      0.840770000000     0.284490000000     0.484240000000     0.107478   
C96      C      0.739950000000     0.322350000000     0.502040000000    -0.107272   
C97      C      0.728550000000     0.180700000000     0.476180000000    -0.0997242  
C98      C      0.803790000000     0.255840000000     0.515470000000    -0.128282   
C99      C      0.716540000000     0.232660000000     0.492490000000     0.0154987  
C100     C      0.751480000000     0.267870000000     0.500720000000     0.0338418  
C101     C      0.635760000000     0.204390000000     0.526330000000     0.0101609  
C102     C      0.661910000000     0.243190000000     0.494940000000    -0.0999735  
C103     C      0.841630000000     0.248320000000     0.386530000000     0.031849   
C104     C      0.646830000000     0.781720000000     0.470630000000     0.00986793 
C105     C      0.851240000000     0.710770000000     0.466690000000     0.0158911  
C106     C      0.783670000000     0.645960000000     0.470110000000     0.105263   
C107     C      0.817570000000     0.746490000000     0.494200000000    -0.107091   
C108     C      0.682960000000     0.752230000000     0.439210000000    -0.10034    
C109     C      0.751150000000     0.683390000000     0.497030000000    -0.126794   
C110     C      0.734710000000     0.765250000000     0.454320000000     0.0191544  
C111     C      0.764700000000     0.735080000000     0.481540000000     0.0326411  
C112     C      0.710620000000     0.850280000000     0.475430000000     0.00999942 
C113     C      0.745100000000     0.818800000000     0.444030000000    -0.101253   
C114     C      0.757160000000     0.640420000000     0.369510000000     0.0268496  
C115     C      0.201360000000     0.346360000000     0.516210000000     0.0120637  
C116     C      0.278180000000     0.132680000000     0.514570000000     0.0183007  
C117     C      0.340680000000     0.189600000000     0.552740000000     0.104875   
C118     C      0.255480000000     0.175350000000     0.486140000000    -0.106927   
C119     C      0.235870000000     0.308490000000     0.538870000000    -0.100031   
C120     C      0.315810000000     0.233900000000     0.528160000000    -0.126709   
C121     C      0.226040000000     0.257230000000     0.519260000000     0.0139206  
C122     C      0.262840000000     0.223360000000     0.513790000000     0.0312696  
C123     C      0.136310000000     0.280600000000     0.529640000000     0.0114644  
C124     C      0.173140000000     0.244770000000     0.506740000000    -0.0993305  
C125     C      0.309330000000     0.180320000000     0.651710000000     0.0274972  
C126     C      0.209850000000     0.635640000000     0.501510000000     0.0096232  
C127     C      0.284120000000     0.837430000000     0.484660000000     0.0165772  
C128     C      0.352050000000     0.773220000000     0.478830000000     0.105166   
C129     C      0.254180000000     0.801670000000     0.515930000000    -0.107305   
C130     C      0.242760000000     0.665300000000     0.466820000000    -0.0998085  
C131     C      0.319630000000     0.737880000000     0.508770000000    -0.127214   
C132     C      0.233720000000     0.719380000000     0.475970000000     0.0180761  
C133     C      0.265930000000     0.749660000000     0.500310000000     0.0328544  
C134     C      0.146820000000     0.704290000000     0.498460000000     0.00962284 
C135     C      0.181120000000     0.732910000000     0.464220000000    -0.1001     
C136     C      0.348030000000     0.749720000000     0.377380000000     0.0277144  
C137     C      0.654250000000     0.513100000000     0.198230000000     0.0111636  
C138     C      0.858280000000     0.474750000000     0.273280000000     0.0163415  
C139     C      0.789570000000     0.492460000000     0.334260000000     0.108016   
C140     C      0.830890000000     0.503730000000     0.233260000000    -0.107745   
C141     C      0.688920000000     0.478160000000     0.224930000000    -0.100035   
C142     C      0.764350000000     0.523630000000     0.294800000000    -0.128781   
C143     C      0.741350000000     0.489840000000     0.210660000000     0.0161813  
C144     C      0.776320000000     0.504480000000     0.243790000000     0.0340992  
C145     C      0.713790000000     0.517720000000     0.127170000000     0.00987589 
C146     C      0.750420000000     0.485560000000     0.155600000000    -0.100267   
C147     C      0.746910000000     0.397980000000     0.338810000000     0.033393   
C148     C      0.154510000000     0.487470000000     0.292020000000     0.0111822  
C149     C      0.357680000000     0.532180000000     0.218070000000     0.0163295  
C150     C      0.288320000000     0.518390000000     0.157180000000     0.106907   
C151     C      0.329200000000     0.504070000000     0.257970000000    -0.106863   
C152     C      0.186930000000     0.527340000000     0.269750000000    -0.0996104  
C153     C      0.261610000000     0.487670000000     0.195930000000    -0.127782   
C154     C      0.239990000000     0.516470000000     0.282170000000     0.0154973  
C155     C      0.274570000000     0.504740000000     0.247510000000     0.0335445  
C156     C      0.215000000000     0.477460000000     0.361650000000     0.0100729  
C157     C      0.249470000000     0.514930000000     0.337320000000    -0.10001    
C158     C      0.251070000000     0.615230000000     0.154980000000     0.028067   
C159     C      0.328160000000     0.485880000000     0.793890000000     0.010436   
C160     C      0.124260000000     0.486110000000     0.719070000000     0.015783   
C161     C      0.195110000000     0.486820000000     0.657500000000     0.106609   
C162     C      0.156570000000     0.512990000000     0.756610000000    -0.107654   
C163     C      0.289080000000     0.455350000000     0.767770000000    -0.100606   
C164     C      0.225900000000     0.514250000000     0.695970000000    -0.127643   
C165     C      0.239040000000     0.475600000000     0.780450000000     0.0183349  
C166     C      0.209850000000     0.500350000000     0.747570000000     0.0331544  
C167     C      0.267800000000     0.500760000000     0.863820000000     0.00966173 
C168     C      0.228760000000     0.471850000000     0.835220000000    -0.101392   
C169     C      0.220350000000     0.386190000000     0.655910000000     0.0302772  
C170     C      0.772010000000     0.498320000000     0.630520000000     0.0107983  
C171     C      0.688020000000     0.448440000000     0.834000000000     0.0176198  
C172     C      0.622660000000     0.473700000000     0.773450000000     0.106848   
C173     C      0.725110000000     0.483170000000     0.810110000000    -0.105705   
C174     C      0.732940000000     0.514200000000     0.668100000000    -0.0994163  
C175     C      0.658060000000     0.510430000000     0.749490000000    -0.127241   
C176     C      0.746400000000     0.501580000000     0.721090000000     0.0138329  
C177     C      0.711470000000     0.495740000000     0.757080000000     0.0317379  
C178     C      0.832060000000     0.526400000000     0.696540000000     0.0116663  
C179     C      0.800650000000     0.497800000000     0.733110000000    -0.0994881  
C180     C      0.621530000000     0.384260000000     0.720530000000     0.0320786  
C181     C      0.786290000000     0.840030000000     0.981990000000     0.0104159  
C182     C      0.706650000000     0.631180000000     0.951670000000     0.0165106  
C183     C      0.644950000000     0.699970000000     0.961340000000     0.106159   
C184     C      0.746350000000     0.662600000000     0.976460000000    -0.106628   
C185     C      0.760090000000     0.804060000000     0.947750000000    -0.099157   
C186     C      0.683670000000     0.730610000000     0.988360000000    -0.127271   
C187     C      0.770950000000     0.751600000000     0.963040000000     0.0146019  
C188     C      0.735340000000     0.717130000000     0.972390000000     0.0330385  
C189     C      0.853370000000     0.777580000000     0.995380000000     0.00890965 
C190     C      0.825450000000     0.740230000000     0.963600000000    -0.0991751  
C191     C      0.638840000000     0.728350000000     0.861250000000     0.0253371  
C192     C      0.631640000000     0.279940000000     0.033830000000     0.0124026  
C193     C      0.842790000000     0.202580000000     0.973580000000     0.0181163  
C194     C      0.779030000000     0.136340000000     0.971410000000     0.107085   
C195     C      0.810110000000     0.235890000000     0.004520000000    -0.105123   
C196     C      0.665790000000     0.243460000000     0.008250000000    -0.0980177  
C197     C      0.743660000000     0.167710000000     0.002140000000    -0.126654   
C198     C      0.720070000000     0.257320000000     0.010010000000     0.0135316  
C199     C      0.755820000000     0.222480000000     0.002050000000     0.0313094  
C200     C      0.695770000000     0.344310000000     0.035880000000     0.0125131  
C201     C      0.732910000000     0.311890000000     0.009490000000    -0.0981499  
C202     C      0.758160000000     0.146950000000     0.869780000000     0.034025   
C203     C      0.283460000000     0.649870000000     0.987330000000     0.0114545  
C204     C      0.209970000000     0.854940000000     0.021760000000     0.0172117  
C205     C      0.147950000000     0.786450000000     0.010080000000     0.106977   
C206     C      0.247740000000     0.826770000000     0.991110000000    -0.107975   
C207     C      0.260370000000     0.686540000000     0.022920000000    -0.10027    
C208     C      0.185650000000     0.758510000000     0.979030000000    -0.127824   
C209     C      0.272360000000     0.738360000000     0.006500000000     0.0158739  
C210     C      0.237540000000     0.772170000000     0.993770000000     0.0333565  
C211     C      0.350940000000     0.710320000000     0.968990000000     0.0101615  
C212     C      0.327010000000     0.748300000000     0.003030000000    -0.10025    
C213     C      0.147220000000     0.750430000000     0.107830000000     0.0291509  
C214     C      0.277060000000     0.359750000000     0.055820000000     0.012314   
C215     C      0.201920000000     0.149260000000     0.990870000000     0.018956   
C216     C      0.134990000000     0.212440000000     0.988860000000     0.107104   
C217     C      0.232820000000     0.180380000000     0.025710000000    -0.106304   
C218     C      0.240690000000     0.324860000000     0.030980000000    -0.0980227  
C219     C      0.165120000000     0.246900000000     0.021960000000    -0.12743    
C220     C      0.254300000000     0.270420000000     0.033780000000     0.0126075  
C221     C      0.219790000000     0.234810000000     0.023840000000     0.0312689  
C222     C      0.340160000000     0.295020000000     0.063170000000     0.0130256  
C223     C      0.308590000000     0.256940000000     0.036980000000    -0.098228   
C224     C      0.146550000000     0.238010000000     0.888430000000     0.0287933  
C225     C      0.712950000000     0.953460000000     0.628300000000     0.012617   
C226     C      0.791470000000     0.015480000000     0.838740000000     0.0196662  
C227     C      0.858660000000     0.015580000000     0.775750000000     0.107719   
C228     C      0.759330000000     0.982140000000     0.807610000000    -0.106585   
C229     C      0.748840000000     0.979640000000     0.662780000000    -0.0993115  
C230     C      0.826350000000     0.986130000000     0.739720000000    -0.128283   
C231     C      0.736700000000     0.975170000000     0.717630000000     0.0138703  
C232     C      0.771830000000     0.984580000000     0.752900000000     0.030725   
C233     C      0.651650000000     0.943100000000     0.694830000000     0.0134625  
C234     C      0.682720000000     0.971050000000     0.732040000000    -0.0997197  
C235     C      0.854860000000     0.117060000000     0.753890000000     0.0368506  
C236     C      0.215490000000     0.016290000000     0.860390000000     0.0106212  
C237     C      0.288550000000     0.969590000000     0.653190000000     0.0166245  
C238     C      0.357100000000     0.953680000000     0.713960000000     0.10506    
C239     C      0.264500000000     0.004700000000     0.689620000000    -0.105876   
C240     C      0.251130000000     0.982580000000     0.832410000000    -0.100273   
C241     C      0.330240000000     0.985040000000     0.752940000000    -0.128157   
C242     C      0.240240000000     0.982790000000     0.777400000000     0.0151286  
C243     C      0.275680000000     0.988850000000     0.742070000000     0.0311299  
C244     C      0.154190000000     0.009520000000     0.791500000000     0.0118668  
C245     C      0.186920000000     0.972420000000     0.765360000000    -0.100606   
C246     C      0.339100000000     0.852780000000     0.730590000000     0.0292969  
C247     C      0.273540000000     0.990600000000     0.358340000000     0.00856889 
C248     C      0.199720000000     0.001650000000     0.155650000000     0.0189444  
C249     C      0.130400000000     0.999080000000     0.219150000000     0.104031   
C250     C      0.231270000000     0.971330000000     0.190810000000    -0.108338   
C251     C      0.236490000000     0.020230000000     0.328050000000    -0.0997046  
C252     C      0.164900000000     0.970800000000     0.254020000000    -0.126504   
C253     C      0.246680000000     0.012150000000     0.273840000000     0.0203366  
C254     C      0.217720000000     0.984360000000     0.243220000000     0.0315319  
C255     C      0.335510000000     0.000440000000     0.288570000000     0.0116955  
C256     C      0.297300000000     0.030390000000     0.260320000000    -0.101398   
C257     C      0.125140000000     0.098720000000     0.247840000000     0.030212   
C258     C      0.834660000000     0.989540000000     0.202100000000     0.0100585  
C259     C      0.630670000000     0.028870000000     0.276980000000     0.0168996  
C260     C      0.699350000000     0.013410000000     0.338230000000     0.108839   
C261     C      0.659160000000     0.001330000000     0.236840000000    -0.106729   
C262     C      0.800900000000     0.027360000000     0.225930000000    -0.098437   
C263     C      0.726720000000     0.984180000000     0.298700000000    -0.130059   
C264     C      0.748170000000     0.015370000000     0.213190000000     0.0149314  
C265     C      0.713720000000     0.002330000000     0.247480000000     0.0349626  
C266     C      0.773910000000     0.979360000000     0.132680000000     0.00922205 
C267     C      0.738630000000     0.015240000000     0.158050000000    -0.0988798  
C268     C      0.736280000000     0.110210000000     0.344300000000     0.028477   
C269     C      0.985820000000     0.362730000000     0.716780000000     0.0107406  
C270     C      0.009670000000     0.154290000000     0.790990000000     0.0192922  
C271     C      0.976200000000     0.211310000000     0.857310000000     0.105895   
C272     C      0.042150000000     0.196070000000     0.772050000000    -0.107803   
C273     C      0.975980000000     0.324110000000     0.756510000000    -0.100951   
C274     C      0.007520000000     0.253170000000     0.836400000000    -0.126773   
C275     C      0.000930000000     0.275470000000     0.745310000000     0.0175526  
C276     C      0.017180000000     0.244830000000     0.781940000000     0.0329567  
C277     C      0.971730000000     0.291390000000     0.657910000000     0.0111751  
C278     C      0.004910000000     0.260760000000     0.691400000000    -0.0975612  
C279     C      0.878370000000     0.219440000000     0.823830000000     0.0345224  
C280     C      0.004920000000     0.787960000000     0.839120000000     0.0135156  
C281     C      0.971600000000     0.714690000000     0.632000000000     0.0148181  
C282     C      0.979700000000     0.652860000000     0.701650000000     0.105792   
C283     C      0.001180000000     0.752360000000     0.661660000000    -0.103467   
C284     C      0.968870000000     0.764810000000     0.802890000000    -0.101727   
C285     C      0.011050000000     0.689870000000     0.730050000000    -0.125194   
C286     C      0.984310000000     0.776840000000     0.750540000000     0.0174132  
C287     C      0.997150000000     0.742040000000     0.716460000000     0.0298041  
C288     C      0.021020000000     0.856050000000     0.778290000000     0.0120192  
C289     C      0.986810000000     0.831660000000     0.740710000000    -0.103189   
C290     C      0.881790000000     0.654790000000     0.735770000000     0.028215   
C291     C      0.041760000000     0.629300000000     0.278860000000     0.0122181  
C292     C      0.973860000000     0.839090000000     0.203550000000     0.0173879  
C293     C      0.976200000000     0.776780000000     0.135490000000     0.105412   
C294     C      0.008190000000     0.808590000000     0.235580000000    -0.103271   
C295     C      0.017520000000     0.664240000000     0.241920000000    -0.0969955  
C296     C      0.008880000000     0.742780000000     0.166510000000    -0.124862   
C297     C      0.018670000000     0.718620000000     0.256170000000     0.01315    
C298     C      0.008620000000     0.754310000000     0.221640000000     0.0309542  
C299     C      0.047570000000     0.694240000000     0.342310000000     0.0131831  
C300     C      0.020480000000     0.731680000000     0.310890000000    -0.0973127  
C301     C      0.876710000000     0.748490000000     0.143120000000     0.0274561  
C302     C      0.993010000000     0.336680000000     0.289250000000     0.00791567 
C303     C      0.986870000000     0.133850000000     0.216920000000     0.0138278  
C304     C      0.987440000000     0.203050000000     0.152790000000     0.104396   
C305     C      0.958370000000     0.167480000000     0.251940000000    -0.1067     
C306     C      0.021120000000     0.298200000000     0.259590000000    -0.0994642  
C307     C      0.959370000000     0.234930000000     0.189990000000    -0.126435   
C308     C      0.001790000000     0.247860000000     0.272710000000     0.0207112  
C309     C      0.972870000000     0.220110000000     0.242020000000     0.032082   
C310     C      0.983800000000     0.274080000000     0.358520000000     0.0080839  
C311     C      0.010890000000     0.236380000000     0.326560000000    -0.100393   
C312     C      0.087420000000     0.230250000000     0.150370000000     0.0277137  
H1       H      0.922890000000     0.920960000000     0.060370000000     0.211202   
H2       H      0.058980000000     0.065340000000     0.073670000000     0.211553   
H3       H      0.927400000000     0.065230000000     0.925400000000     0.216339   
H4       H      0.071240000000     0.929450000000     0.928150000000     0.207798   
H5       H      0.929840000000     0.563120000000     0.416090000000     0.207195   
H6       H      0.065270000000     0.418590000000     0.433810000000     0.207975   
H7       H      0.915900000000     0.430120000000     0.564820000000     0.207737   
H8       H      0.060220000000     0.567220000000     0.567250000000     0.208795   
H9       H      0.422220000000     0.925310000000     0.420560000000     0.209277   
H10      H      0.558480000000     0.069620000000     0.429340000000     0.209348   
H11      H      0.568170000000     0.914280000000     0.553430000000     0.210905   
H12      H      0.425970000000     0.050130000000     0.576590000000     0.209836   
H13      H      0.428240000000     0.574520000000     0.063640000000     0.210145   
H14      H      0.411900000000     0.419440000000     0.940050000000     0.207723   
H15      H      0.562480000000     0.429820000000     0.069860000000     0.211475   
H16      H      0.557530000000     0.552820000000     0.913770000000     0.209205   
H17      H      0.481660000000     0.292680000000     0.353830000000     0.04252    
H18      H      0.530740000000     0.280430000000     0.167860000000     0.031174   
H19      H      0.435530000000     0.164970000000     0.286230000000     0.0281843  
H20      H      0.506310000000     0.189390000000     0.231680000000     0.0425136  
H21      H      0.455660000000     0.232720000000     0.194060000000     0.0433194  
H22      H      0.495170000000     0.347670000000     0.300930000000     0.0549959  
H23      H      0.477140000000     0.221530000000     0.410540000000     0.0353012  
H24      H      0.479180000000     0.287490000000     0.127590000000     0.0336176  
H25      H      0.545190000000     0.190170000000     0.283240000000     0.0524772  
H26      H      0.440520000000     0.351650000000     0.265330000000     0.0531917  
H27      H      0.485520000000     0.122210000000     0.287070000000     0.0341485  
H28      H      0.535920000000     0.255550000000     0.352680000000     0.0508062  
H29      H      0.422640000000     0.287820000000     0.198460000000     0.0520624  
H30      H      0.498450000000     0.406450000000     0.229500000000     0.0217409  
H31      H      0.428190000000     0.225540000000     0.366980000000     0.0286434  
H32      H      0.538380000000     0.695160000000     0.259470000000     0.0491121  
H33      H      0.544250000000     0.866200000000     0.258980000000     0.0329597  
H34      H      0.455220000000     0.729200000000     0.124460000000     0.0279967  
H35      H      0.510040000000     0.797350000000     0.137570000000     0.0418702  
H36      H      0.491060000000     0.848460000000     0.190710000000     0.0433041  
H37      H      0.474860000000     0.724290000000     0.292960000000     0.0550092  
H38      H      0.522320000000     0.626380000000     0.202840000000     0.0358312  
H39      H      0.491020000000     0.904190000000     0.262240000000     0.0329378  
H40      H      0.562620000000     0.759160000000     0.140740000000     0.0500927  
H41      H      0.432920000000     0.772670000000     0.289290000000     0.0564391  
H42      H      0.504910000000     0.725850000000     0.081670000000     0.0356524  
H43      H      0.575180000000     0.698830000000     0.206500000000     0.0533784  
H44      H      0.438740000000     0.840350000000     0.228890000000     0.0495528  
H45      H      0.482060000000     0.783220000000     0.362030000000     0.0229355  
H46      H      0.468260000000     0.663450000000     0.208220000000     0.0284914  
H47      H      0.464910000000     0.794330000000     0.757910000000     0.0498848  
H48      H      0.428840000000     0.626200000000     0.763660000000     0.0335725  
H49      H      0.547830000000     0.751930000000     0.626980000000     0.027121   
H50      H      0.488540000000     0.688400000000     0.637820000000     0.0420417  
H51      H      0.479700000000     0.635310000000     0.693260000000     0.0439542  
H52      H      0.520320000000     0.754800000000     0.794370000000     0.0551796  
H53      H      0.492680000000     0.859790000000     0.703080000000     0.0376349  
H54      H      0.474730000000     0.579540000000     0.764930000000     0.0342751  
H55      H      0.437730000000     0.729870000000     0.637100000000     0.0507738  
H56      H      0.554300000000     0.700510000000     0.790570000000     0.0570027  
H57      H      0.501280000000     0.758450000000     0.581080000000     0.0358704  
H58      H      0.429350000000     0.795020000000     0.703930000000     0.0578314  
H59      H      0.535570000000     0.632940000000     0.727870000000     0.0491588  
H60      H      0.504110000000     0.699110000000     0.863670000000     0.023379   
H61      H      0.540190000000     0.814450000000     0.706970000000     0.0268846  
H62      H      0.461910000000     0.301700000000     0.731180000000     0.0432989  
H63      H      0.557520000000     0.117630000000     0.731660000000     0.034556   
H64      H      0.420720000000     0.256260000000     0.871600000000     0.0260972  
H65      H      0.471740000000     0.193980000000     0.844990000000     0.0413508  
H66      H      0.508600000000     0.145090000000     0.795010000000     0.0441829  
H67      H      0.507470000000     0.257950000000     0.684820000000     0.0564935  
H68      H      0.450600000000     0.365550000000     0.792110000000     0.0355257  
H69      H      0.503940000000     0.080320000000     0.727830000000     0.0327494  
H70      H      0.526700000000     0.230260000000     0.846710000000     0.0514822  
H71      H      0.454710000000     0.219250000000     0.678000000000     0.0579713  
H72      H      0.474430000000     0.261440000000     0.909080000000     0.0342169  
H73      H      0.517400000000     0.312360000000     0.765830000000     0.0567648  
H74      H      0.452280000000     0.141210000000     0.760980000000     0.0490259  
H75      H      0.517280000000     0.196210000000     0.621020000000     0.02231    
H76      H      0.409870000000     0.314600000000     0.798980000000     0.0260414  
H77      H      0.767940000000     0.171880000000     0.473780000000     0.0473799  
H78      H      0.771120000000     0.344740000000     0.432420000000     0.0374242  
H79      H      0.646390000000     0.210100000000     0.565490000000     0.0335172  
H80      H      0.653180000000     0.278900000000     0.512290000000     0.0433289  
H81      H      0.703940000000     0.331310000000     0.485500000000     0.0455535  
H82      H      0.813300000000     0.216430000000     0.515670000000     0.0548528  
H83      H      0.710930000000     0.106060000000     0.495320000000     0.0372028  
H84      H      0.770550000000     0.391370000000     0.478630000000     0.0369453  
H85      H      0.646550000000     0.243100000000     0.457010000000     0.0508172  
H86      H      0.808420000000     0.267510000000     0.554460000000     0.0560433  
H87      H      0.595670000000     0.210920000000     0.523860000000     0.0378476  
H88      H      0.714380000000     0.175900000000     0.438060000000     0.055321   
H89      H      0.739930000000     0.335120000000     0.540940000000     0.0509353  
H90      H      0.877590000000     0.277330000000     0.500160000000     0.0207822  
H91      H      0.718790000000     0.146280000000     0.547140000000     0.0304983  
H92      H      0.673940000000     0.712770000000     0.440200000000     0.0475769  
H93      H      0.849460000000     0.719180000000     0.426630000000     0.0314687  
H94      H      0.721640000000     0.846910000000     0.514740000000     0.0277786  
H95      H      0.783150000000     0.830870000000     0.450060000000     0.0421786  
H96      H      0.829740000000     0.784230000000     0.486440000000     0.0433697  
H97      H      0.712020000000     0.673700000000     0.493410000000     0.0540674  
H98      H      0.609290000000     0.774470000000     0.456510000000     0.0387964  
H99      H      0.889460000000     0.717910000000     0.478830000000     0.0332314  
H100     H      0.737660000000     0.826500000000     0.404480000000     0.0513187  
H101     H      0.758420000000     0.679900000000     0.537210000000     0.0554935  
H102     H      0.716150000000     0.889220000000     0.464610000000     0.0357223  
H103     H      0.677720000000     0.762810000000     0.400000000000     0.0543067  
H104     H      0.822950000000     0.741360000000     0.534500000000     0.0513618  
H105     H      0.775790000000     0.609530000000     0.486720000000     0.0223532  
H106     H      0.648370000000     0.767940000000     0.509180000000     0.0283054  
H107     H      0.273110000000     0.321670000000     0.529400000000     0.0430494  
H108     H      0.257390000000     0.127250000000     0.549400000000     0.0318454  
H109     H      0.099130000000     0.271240000000     0.515810000000     0.0341851  
H110     H      0.168630000000     0.244860000000     0.466030000000     0.0486163  
H111     H      0.216800000000     0.166030000000     0.478360000000     0.0436094  
H112     H      0.319920000000     0.265170000000     0.553940000000     0.0552453  
H113     H      0.207840000000     0.382010000000     0.535130000000     0.0382199  
H114     H      0.273970000000     0.098870000000     0.492030000000     0.0335351  
H115     H      0.163560000000     0.207860000000     0.521200000000     0.0431259  
H116     H      0.336310000000     0.243470000000     0.494100000000     0.0547726  
H117     H      0.135840000000     0.275190000000     0.570260000000     0.031288   
H118     H      0.231750000000     0.308360000000     0.579600000000     0.053348   
H119     H      0.273930000000     0.178450000000     0.449750000000     0.0526398  
H120     H      0.380590000000     0.197500000000     0.554100000000     0.0209948  
H121     H      0.211050000000     0.351830000000     0.476760000000     0.0294782  
H122     H      0.280880000000     0.652730000000     0.470880000000     0.0441861  
H123     H      0.271050000000     0.835340000000     0.445900000000     0.0308394  
H124     H      0.151980000000     0.717890000000     0.536750000000     0.0268713  
H125     H      0.172690000000     0.772500000000     0.465290000000     0.041932   
H126     H      0.215030000000     0.811710000000     0.515020000000     0.0436773  
H127     H      0.330910000000     0.699760000000     0.501300000000     0.0539441  
H128     H      0.215330000000     0.596120000000     0.493150000000     0.0357011  
H129     H      0.276450000000     0.875190000000     0.498020000000     0.0339933  
H130     H      0.173060000000     0.721840000000     0.425600000000     0.0509249  
H131     H      0.327790000000     0.743430000000     0.548540000000     0.0549159  
H132     H      0.108440000000     0.712530000000     0.487620000000     0.0344649  
H133     H      0.232650000000     0.656430000000     0.428120000000     0.0520647  
H134     H      0.265090000000     0.806390000000     0.555140000000     0.0526993  
H135     H      0.390410000000     0.766930000000     0.491040000000     0.0221403  
H136     H      0.222220000000     0.641800000000     0.540070000000     0.0275637  
H137     H      0.681290000000     0.478040000000     0.264910000000     0.0489502  
H138     H      0.850740000000     0.435030000000     0.267690000000     0.0335757  
H139     H      0.723870000000     0.556820000000     0.133160000000     0.0289059  
H140     H      0.787280000000     0.497610000000     0.143870000000     0.0417951  
H141     H      0.840570000000     0.486090000000     0.197890000000     0.0439407  
H142     H      0.724920000000     0.528080000000     0.303020000000     0.0558532  
H143     H      0.616080000000     0.503450000000     0.208640000000     0.037076   
H144     H      0.898220000000     0.480030000000     0.267390000000     0.033507   
H145     H      0.745870000000     0.446630000000     0.144270000000     0.049484   
H146     H      0.779290000000     0.561500000000     0.297420000000     0.0579005  
H147     H      0.718220000000     0.510210000000     0.087180000000     0.0352829  
H148     H      0.680660000000     0.440120000000     0.212650000000     0.0552566  
H149     H      0.844780000000     0.542060000000     0.232300000000     0.0504096  
H150     H      0.782540000000     0.510700000000     0.370210000000     0.0236771  
H151     H      0.661410000000     0.551170000000     0.211160000000     0.0292885  
H152     H      0.178980000000     0.532390000000     0.230140000000     0.0463764  
H153     H      0.351460000000     0.572120000000     0.223740000000     0.0315474  
H154     H      0.226970000000     0.440070000000     0.350420000000     0.0264725  
H155     H      0.287170000000     0.504150000000     0.347520000000     0.0418339  
H156     H      0.338990000000     0.521880000000     0.293270000000     0.0441284  
H157     H      0.222050000000     0.485790000000     0.187440000000     0.0537726  
H158     H      0.115760000000     0.495980000000     0.282870000000     0.0352747  
H159     H      0.397400000000     0.525550000000     0.223980000000     0.0339427  
H160     H      0.242540000000     0.551880000000     0.353180000000     0.0511287  
H161     H      0.274410000000     0.449090000000     0.192300000000     0.0560205  
H162     H      0.219570000000     0.479850000000     0.402250000000     0.0349802  
H163     H      0.176890000000     0.563000000000     0.286940000000     0.0538614  
H164     H      0.342030000000     0.465390000000     0.259250000000     0.0503646  
H165     H      0.280020000000     0.501540000000     0.120830000000     0.0214416  
H166     H      0.163810000000     0.451700000000     0.274630000000     0.0268357  
H167     H      0.296960000000     0.452390000000     0.727940000000     0.0474693  
H168     H      0.124200000000     0.446330000000     0.728240000000     0.033712   
H169     H      0.261380000000     0.540610000000     0.857740000000     0.0303589  
H170     H      0.192630000000     0.485450000000     0.847120000000     0.0425134  
H171     H      0.142590000000     0.503550000000     0.793510000000     0.043995   
H172     H      0.265520000000     0.510270000000     0.688440000000     0.0537352  
H173     H      0.364450000000     0.469280000000     0.785690000000     0.0348019  
H174     H      0.086090000000     0.499450000000     0.723890000000     0.033993   
H175     H      0.230510000000     0.432650000000     0.846430000000     0.0503111  
H176     H      0.219030000000     0.554200000000     0.691160000000     0.0539762  
H177     H      0.262230000000     0.493620000000     0.903740000000     0.0352352  
H178     H      0.291460000000     0.417020000000     0.781630000000     0.0519316  
H179     H      0.151520000000     0.553220000000     0.752140000000     0.0495697  
H180     H      0.204910000000     0.502330000000     0.620920000000     0.0196658  
H181     H      0.328080000000     0.523590000000     0.778210000000     0.0302351  
H182     H      0.727040000000     0.554440000000     0.665270000000     0.0484474  
H183     H      0.692890000000     0.411440000000     0.817430000000     0.0341672  
H184     H      0.823160000000     0.566100000000     0.699680000000     0.0326499  
H185     H      0.808730000000     0.513760000000     0.769890000000     0.0427362  
H186     H      0.761060000000     0.464400000000     0.812930000000     0.0442471  
H187     H      0.647000000000     0.515820000000     0.710670000000     0.0536902  
H188     H      0.769590000000     0.457940000000     0.624980000000     0.0305002  
H189     H      0.696850000000     0.444750000000     0.873800000000     0.0343124  
H190     H      0.811770000000     0.458570000000     0.732950000000     0.0510466  
H191     H      0.652770000000     0.546690000000     0.767490000000     0.0546901  
H192     H      0.871100000000     0.522150000000     0.707350000000     0.0378418  
H193     H      0.698950000000     0.495040000000     0.656650000000     0.0455856  
H194     H      0.727050000000     0.517700000000     0.831810000000     0.0506374  
H195     H      0.585300000000     0.489690000000     0.770650000000     0.0202182  
H196     H      0.763220000000     0.515490000000     0.594400000000     0.0345327  
H197     H      0.720930000000     0.813770000000     0.945250000000     0.0449582  
H198     H      0.711060000000     0.634370000000     0.911040000000     0.0306811  
H199     H      0.844940000000     0.770020000000     0.034750000000     0.0315964  
H200     H      0.834340000000     0.703840000000     0.979280000000     0.0425432  
H201     H      0.780960000000     0.652270000000     0.957860000000     0.0439487  
H202     H      0.674120000000     0.769860000000     0.985500000000     0.0541709  
H203     H      0.779030000000     0.877850000000     0.968520000000     0.0349476  
H204     H      0.713710000000     0.592180000000     0.961240000000     0.0330997  
H205     H      0.839670000000     0.741350000000     0.925240000000     0.0501323  
H206     H      0.680770000000     0.722270000000     0.028370000000     0.0566292  
H207     H      0.893230000000     0.770980000000     0.990320000000     0.0378374  
H208     H      0.774530000000     0.809420000000     0.909810000000     0.0528217  
H209     H      0.749270000000     0.652520000000     0.016030000000     0.050939   
H210     H      0.609060000000     0.708730000000     0.978570000000     0.0217592  
H211     H      0.770260000000     0.836810000000     0.019540000000     0.0282016  
H212     H      0.658970000000     0.208020000000     0.027140000000     0.0416967  
H213     H      0.837570000000     0.212090000000     0.934070000000     0.0361412  
H214     H      0.700390000000     0.339170000000     0.076310000000     0.0260577  
H215     H      0.768000000000     0.319200000000     0.028730000000     0.0414778  
H216     H      0.817530000000     0.273240000000     0.990250000000     0.0443378  
H217     H      0.706380000000     0.159840000000     0.987910000000     0.0549592  
H218     H      0.593350000000     0.271250000000     0.022930000000     0.034571   
H219     H      0.881570000000     0.211130000000     0.982610000000     0.0359501  
H220     H      0.736290000000     0.324100000000     0.970560000000     0.0518905  
H221     H      0.744910000000     0.154780000000     0.040970000000     0.0549791  
H222     H      0.704600000000     0.383280000000     0.027750000000     0.0342736  
H223     H      0.654680000000     0.239860000000     0.969010000000     0.0523525  
H224     H      0.822100000000     0.234260000000     0.043620000000     0.0514688  
H225     H      0.771860000000     0.097400000000     0.981180000000     0.0210767  
H226     H      0.634430000000     0.274350000000     0.074370000000     0.0271011  
H227     H      0.220960000000     0.678680000000     0.027900000000     0.0481483  
H228     H      0.217150000000     0.847540000000     0.061430000000     0.0328549  
H229     H      0.338400000000     0.717490000000     0.930660000000     0.0319105  
H230     H      0.336420000000     0.784620000000     0.987540000000     0.0425106  
H231     H      0.283890000000     0.837340000000     0.006190000000     0.0438265  
H232     H      0.177460000000     0.718770000000     0.978910000000     0.0542389  
H233     H      0.275420000000     0.612210000000     0.000720000000     0.0369897  
H234     H      0.216310000000     0.894770000000     0.015870000000     0.0332555  
H235     H      0.343490000000     0.745770000000     0.040400000000     0.0500902  
H236     H      0.180710000000     0.769850000000     0.939970000000     0.0547366  
H237     H      0.391210000000     0.716140000000     0.969640000000     0.038467   
H238     H      0.276840000000     0.680810000000     0.059960000000     0.0551786  
H239     H      0.245960000000     0.838970000000     0.952070000000     0.0502047  
H240     H      0.111330000000     0.778670000000     0.993980000000     0.0206727  
H241     H      0.265870000000     0.654110000000     0.950600000000     0.0286819  
H242     H      0.205200000000     0.331930000000     0.049600000000     0.042146   
H243     H      0.213560000000     0.157100000000     0.952380000000     0.0330661  
H244     H      0.332820000000     0.292560000000     0.103450000000     0.0261773  
H245     H      0.313970000000     0.222590000000     0.058270000000     0.0410305  
H246     H      0.271180000000     0.173100000000     0.014540000000     0.0433376  
H247     H      0.157670000000     0.284730000000     0.008900000000     0.0557038  
H248     H      0.269200000000     0.397750000000     0.043300000000     0.0346973  
H249     H      0.210440000000     0.110050000000     0.998050000000     0.0333986  
H250     H      0.322870000000     0.251450000000     0.999020000000     0.0499029  
H251     H      0.150700000000     0.244310000000     0.060180000000     0.0569396  
H252     H      0.379340000000     0.285480000000     0.057580000000     0.0343591  
H253     H      0.237190000000     0.335200000000     0.991510000000     0.0507194  
H254     H      0.227780000000     0.167060000000     0.064090000000     0.0513641  
H255     H      0.095830000000     0.218710000000     0.998090000000     0.0233272  
H256     H      0.270550000000     0.358710000000     0.096300000000     0.0265233  
H257     H      0.785040000000     0.963260000000     0.654260000000     0.0417326  
H258     H      0.781650000000     0.054180000000     0.830370000000     0.0364307  
H259     H      0.660900000000     0.903410000000     0.697510000000     0.0256246  
H260     H      0.678060000000     0.950550000000     0.767050000000     0.0422253  
H261     H      0.721440000000     0.994500000000     0.815460000000     0.0446739  
H262     H      0.832990000000     0.001660000000     0.702530000000     0.0564359  
H263     H      0.719350000000     0.966800000000     0.590140000000     0.0345734  
H264     H      0.782360000000     0.009190000000     0.878140000000     0.036643   
H265     H      0.667530000000     0.008600000000     0.736740000000     0.053854   
H266     H      0.839730000000     0.947610000000     0.739070000000     0.0543195  
H267     H      0.612510000000     0.947050000000     0.705360000000     0.0344334  
H268     H      0.749900000000     0.019240000000     0.653050000000     0.053563   
H269     H      0.763360000000     0.943620000000     0.820450000000     0.0523905  
H270     H      0.897110000000     0.003760000000     0.769330000000     0.0213198  
H271     H      0.721580000000     0.913550000000     0.628620000000     0.0252802  
H272     H      0.288240000000     0.996200000000     0.841480000000     0.0419466  
H273     H      0.271780000000     0.932660000000     0.657500000000     0.0328014  
H274     H      0.162410000000     0.046790000000     0.776970000000     0.0288824  
H275     H      0.177640000000     0.971160000000     0.725820000000     0.0422884  
H276     H      0.225340000000     0.008770000000     0.680460000000     0.0445422  
H277     H      0.338460000000     0.968680000000     0.789400000000     0.0550178  
H278     H      0.221050000000     0.010700000000     0.900560000000     0.0349363  
H279     H      0.280180000000     0.982540000000     0.615300000000     0.0336379  
H280     H      0.177880000000     0.935190000000     0.779470000000     0.0514092  
H281     H      0.345940000000     0.022670000000     0.752840000000     0.0546434  
H282     H      0.115460000000     0.001000000000     0.782320000000     0.0346879  
H283     H      0.247750000000     0.944470000000     0.846560000000     0.0499176  
H284     H      0.280420000000     0.041850000000     0.684040000000     0.0535533  
H285     H      0.396970000000     0.959440000000     0.719720000000     0.0214166  
H286     H      0.225530000000     0.055000000000     0.852180000000     0.0290212  
H287     H      0.199190000000     0.011050000000     0.340500000000     0.044509   
H288     H      0.210010000000     0.040970000000     0.159250000000     0.0309429  
H289     H      0.335340000000     0.962190000000     0.274300000000     0.0269556  
H290     H      0.305610000000     0.030740000000     0.220500000000     0.0426536  
H291     H      0.270490000000     0.975120000000     0.181620000000     0.0434303  
H292     H      0.152840000000     0.975680000000     0.292500000000     0.0532815  
H293     H      0.267920000000     0.999910000000     0.397810000000     0.0351762  
H294     H      0.208780000000     0.990140000000     0.117440000000     0.0325508  
H295     H      0.300650000000     0.069420000000     0.271810000000     0.0513966  
H296     H      0.160240000000     0.930890000000     0.246830000000     0.0543393  
H297     H      0.372190000000     0.016270000000     0.280550000000     0.0344435  
H298     H      0.241270000000     0.059830000000     0.336710000000     0.051408   
H299     H      0.223100000000     0.931840000000     0.184530000000     0.0522139  
H300     H      0.093210000000     0.983180000000     0.223950000000     0.0216146  
H301     H      0.265170000000     0.950900000000     0.353990000000     0.0286067  
H302     H      0.808780000000     0.031000000000     0.265710000000     0.0465977  
H303     H      0.637370000000     0.068850000000     0.272270000000     0.0309703  
H304     H      0.763090000000     0.941380000000     0.143020000000     0.0274814  
H305     H      0.701250000000     0.003720000000     0.147500000000     0.0416635  
H306     H      0.649180000000     0.019450000000     0.201780000000     0.0436062  
H307     H      0.766290000000     0.982720000000     0.307250000000     0.0543172  
H308     H      0.873140000000     0.999400000000     0.211040000000     0.0354476  
H309     H      0.590950000000     0.022770000000     0.270480000000     0.0334362  
H310     H      0.744590000000     0.052800000000     0.143260000000     0.0507041  
H311     H      0.714530000000     0.945330000000     0.301240000000     0.057323   
H312     H      0.768930000000     0.982690000000     0.092190000000     0.035089   
H313     H      0.809720000000     0.063990000000     0.210200000000     0.0537357  
H314     H      0.646560000000     0.962580000000     0.235190000000     0.0504969  
H315     H      0.707180000000     0.995330000000     0.374090000000     0.0204354  
H316     H      0.827090000000     0.952950000000     0.218600000000     0.0276768  
H317     H      0.989620000000     0.341020000000     0.790940000000     0.043307   
H318     H      0.975830000000     0.152670000000     0.768230000000     0.033775   
H319     H      0.978450000000     0.280360000000     0.619070000000     0.0350635  
H320     H      0.043560000000     0.264910000000     0.679190000000     0.0514862  
H321     H      0.051820000000     0.189560000000     0.732960000000     0.0447725  
H322     H      0.989690000000     0.288270000000     0.846000000000     0.0540475  
H323     H      0.961120000000     0.394540000000     0.723410000000     0.0322068  
H324     H      0.029720000000     0.119160000000     0.785760000000     0.0351986  
H325     H      0.993520000000     0.221920000000     0.686430000000     0.0435084  
H326     H      0.043320000000     0.253400000000     0.855930000000     0.059688   
H327     H      0.932870000000     0.282460000000     0.666390000000     0.0288164  
H328     H      0.935900000000     0.317890000000     0.760040000000     0.052493   
H329     H      0.077440000000     0.195260000000     0.792520000000     0.0546867  
H330     H      0.975090000000     0.216440000000     0.897900000000     0.0232618  
H331     H      0.023960000000     0.376640000000     0.720850000000     0.0348839  
H332     H      0.963930000000     0.725400000000     0.810970000000     0.0467529  
H333     H      0.931970000000     0.722680000000     0.637190000000     0.0331431  
H334     H      0.059200000000     0.844290000000     0.770120000000     0.0256311  
H335     H      0.001200000000     0.841560000000     0.703990000000     0.0429171  
H336     H      0.986590000000     0.788590000000     0.650710000000     0.0419262  
H337     H      0.010860000000     0.681350000000     0.769870000000     0.0533757  
H338     H      0.992300000000     0.779770000000     0.877170000000     0.0341678  
H339     H      0.979690000000     0.720490000000     0.592300000000     0.0334121  
H340     H      0.949480000000     0.847600000000     0.744100000000     0.0514677  
H341     H      0.049860000000     0.684370000000     0.718850000000     0.05387    
H342     H      0.019550000000     0.896390000000     0.772700000000     0.0343049  
H343     H      0.932150000000     0.781310000000     0.809320000000     0.0542573  
H344     H      0.040340000000     0.750660000000     0.650550000000     0.048703   
H345     H      0.994630000000     0.615850000000     0.710070000000     0.0199723  
H346     H      0.041450000000     0.770570000000     0.834090000000     0.0263584  
H347     H      0.037210000000     0.657950000000     0.206720000000     0.0426205  
H348     H      0.935430000000     0.829880000000     0.213570000000     0.0320441  
H349     H      0.087500000000     0.697630000000     0.334660000000     0.0268326  
H350     H      0.040260000000     0.766730000000     0.317030000000     0.0413022  
H351     H      0.995260000000     0.814880000000     0.273770000000     0.0423635  
H352     H      0.997070000000     0.704740000000     0.158190000000     0.0547055  
H353     H      0.029310000000     0.591320000000     0.270820000000     0.0344896  
H354     H      0.979430000000     0.878390000000     0.212880000000     0.0335488  
H355     H      0.982370000000     0.735510000000     0.324780000000     0.0497854  
H356     H      0.047260000000     0.746460000000     0.153340000000     0.0588786  
H357     H      0.042090000000     0.703610000000     0.381770000000     0.0350479  
H358     H      0.978620000000     0.653160000000     0.237060000000     0.0496585  
H359     H      0.046070000000     0.823200000000     0.232300000000     0.0521401  
H360     H      0.986850000000     0.771180000000     0.096370000000     0.0234071  
H361     H      0.082090000000     0.630240000000     0.272820000000     0.0272126  
H362     H      0.020630000000     0.307290000000     0.219940000000     0.047366   
H363     H      0.026070000000     0.133870000000     0.228050000000     0.0363297  
H364     H      0.943780000000     0.267100000000     0.355560000000     0.0351329  
H365     H      0.000420000000     0.199250000000     0.338640000000     0.0438036  
H366     H      0.963720000000     0.154610000000     0.290030000000     0.0446084  
H367     H      0.963270000000     0.274430000000     0.181570000000     0.0532992  
H368     H      0.009320000000     0.373140000000     0.281030000000     0.0358507  
H369     H      0.972960000000     0.095880000000     0.222170000000     0.0360027  
H370     H      0.050830000000     0.239330000000     0.334100000000     0.0500783  
H371     H      0.919560000000     0.227880000000     0.184740000000     0.0547705  
H372     H      0.994330000000     0.267630000000     0.397550000000     0.0367135  
H373     H      0.060460000000     0.300240000000     0.270110000000     0.0515306  
H374     H      0.918530000000     0.163080000000     0.244560000000     0.0513508  
H375     H      0.971890000000     0.211140000000     0.115810000000     0.0213403  
H376     H      0.954340000000     0.337470000000     0.276340000000     0.0313616  
N1       N      0.560770000000     0.362350000000     0.233100000000    -0.124867   
N2       N      0.496190000000     0.350080000000     0.173950000000    -0.17998    
N3       N      0.477080000000     0.167280000000     0.352270000000    -0.172616   
N4       N      0.551220000000     0.778430000000     0.329240000000    -0.122934   
N5       N      0.496320000000     0.846950000000     0.317230000000    -0.180732   
N6       N      0.504680000000     0.671270000000     0.139540000000    -0.173005   
N7       N      0.436380000000     0.712490000000     0.830360000000    -0.123566   
N8       N      0.481830000000     0.637100000000     0.819510000000    -0.180622   
N9       N      0.502000000000     0.813340000000     0.638810000000    -0.172914   
N10      N      0.577010000000     0.195140000000     0.668640000000    -0.125052   
N11      N      0.512580000000     0.134400000000     0.670630000000    -0.180462   
N12      N      0.464320000000     0.317570000000     0.854140000000    -0.172679   
N13      N      0.841370000000     0.265670000000     0.433360000000    -0.12382    
N14      N      0.828670000000     0.337470000000     0.484100000000    -0.180495   
N15      N      0.649960000000     0.154070000000     0.511830000000    -0.172224   
N16      N      0.769900000000     0.642980000000     0.417740000000    -0.124194   
N17      N      0.836400000000     0.658930000000     0.474360000000    -0.180301   
N18      N      0.658630000000     0.834880000000     0.470590000000    -0.172055   
N19      N      0.324360000000     0.184830000000     0.604290000000    -0.126399   
N20      N      0.329880000000     0.143550000000     0.526120000000    -0.182128   
N21      N      0.149300000000     0.332080000000     0.519300000000    -0.173669   
N22      N      0.349950000000     0.760940000000     0.426030000000    -0.124245   
N23      N      0.337090000000     0.825150000000     0.486000000000    -0.180483   
N24      N      0.157880000000     0.651020000000     0.497170000000    -0.173003   
N25      N      0.767370000000     0.443270000000     0.336750000000    -0.123392   
N26      N      0.842710000000     0.488210000000     0.323860000000    -0.180771   
N27      N      0.662880000000     0.510420000000     0.144530000000    -0.17299    
N28      N      0.268910000000     0.568810000000     0.156030000000    -0.125051   
N29      N      0.341590000000     0.519280000000     0.167570000000    -0.181283   
N30      N      0.163600000000     0.484440000000     0.345630000000    -0.173586   
N31      N      0.208300000000     0.434450000000     0.656590000000    -0.123353   
N32      N      0.141950000000     0.492080000000     0.667680000000    -0.180897   
N33      N      0.318280000000     0.488810000000     0.847510000000    -0.172778   
N34      N      0.622060000000     0.427150000000     0.745850000000    -0.124366   
N35      N      0.637280000000     0.464920000000     0.825120000000    -0.18144    
N36      N      0.822520000000     0.510530000000     0.645510000000    -0.1734     
N37      N      0.641770000000     0.714780000000     0.909240000000    -0.124654   
N38      N      0.656430000000     0.647000000000     0.964750000000    -0.180683   
N39      N      0.839220000000     0.828870000000     0.984470000000    -0.172043   
N40      N      0.768140000000     0.141540000000     0.918430000000    -0.125825   
N41      N      0.830280000000     0.150520000000     0.980990000000    -0.18129    
N42      N      0.645500000000     0.330700000000     0.022350000000    -0.173663   
N43      N      0.147460000000     0.767690000000     0.060970000000    -0.123824   
N44      N      0.159170000000     0.839620000000     0.010190000000    -0.181766   
N45      N      0.336500000000     0.659840000000     0.982750000000    -0.173131   
N46      N      0.140970000000     0.225840000000     0.936560000000    -0.124428   
N47      N      0.149440000000     0.160760000000     0.996110000000    -0.181267   
N48      N      0.327740000000     0.344570000000     0.046110000000    -0.173868   
N49      N      0.856650000000     0.068430000000     0.764290000000    -0.125518   
N50      N      0.843600000000     0.007620000000     0.827310000000    -0.181468   
N51      N      0.662070000000     0.960120000000     0.644620000000    -0.173888   
N52      N      0.347780000000     0.901120000000     0.722620000000    -0.124354   
N53      N      0.341710000000     0.966500000000     0.663160000000    -0.180719   
N54      N      0.164150000000     0.008430000000     0.844970000000    -0.173212   
N55      N      0.127470000000     0.050940000000     0.234100000000    -0.124071   
N56      N      0.146750000000     0.996150000000     0.166960000000    -0.180704   
N57      N      0.324780000000     0.999410000000     0.342160000000    -0.173061   
N58      N      0.718600000000     0.063800000000     0.341400000000    -0.125359   
N59      N      0.646210000000     0.014590000000     0.327280000000    -0.181492   
N60      N      0.825190000000     0.987430000000     0.148490000000    -0.173363   
N61      N      0.925270000000     0.215540000000     0.839860000000    -0.125659   
N62      N      0.996080000000     0.162630000000     0.843140000000    -0.180609   
N63      N      0.979440000000     0.344270000000     0.666100000000    -0.173936   
N64      N      0.928720000000     0.653790000000     0.719410000000    -0.123707   
N65      N      0.981050000000     0.663650000000     0.648170000000    -0.181375   
N66      N      0.008930000000     0.841120000000     0.829300000000    -0.174376   
N67      N      0.924390000000     0.762010000000     0.139470000000    -0.126099   
N68      N      0.981670000000     0.828400000000     0.150950000000    -0.181211   
N69      N      0.031580000000     0.644380000000     0.329750000000    -0.173704   
N70      N      0.039470000000     0.217280000000     0.151450000000    -0.123446   
N71      N      0.983430000000     0.149970000000     0.164710000000    -0.179987   
N72      N      0.993680000000     0.325260000000     0.342700000000    -0.171958   
O1       O      0.986000000000     0.131220000000     0.082470000000    -0.37934    
O2       O      0.991290000000     0.853380000000     0.071220000000    -0.37596    
O3       O      0.907180000000     0.990430000000     0.131520000000    -0.377097   
O4       O      0.066980000000     0.992250000000     0.140820000000    -0.374603   
O5       O      0.128950000000     0.997750000000     0.084620000000    -0.380085   
O6       O      0.851650000000     0.988980000000     0.068650000000    -0.38029    
O7       O      0.987100000000     0.910170000000     0.132890000000    -0.379778   
O8       O      0.985090000000     0.069820000000     0.139610000000    -0.377414   
O9       O      0.042640000000     0.945290000000     0.047480000000    -0.506032   
O10      O      0.940140000000     0.041380000000     0.045990000000    -0.507042   
O11      O      0.944120000000     0.942490000000     0.041880000000    -0.654539   
O12      O      0.040200000000     0.044790000000     0.051690000000    -0.654334   
O13      O      0.002240000000     0.859280000000     0.911310000000    -0.378954   
O14      O      0.992070000000     0.136360000000     0.922670000000    -0.376372   
O15      O      0.858270000000     0.910780000000     0.984890000000    -0.37793    
O16      O      0.134910000000     0.919670000000     0.006060000000    -0.381567   
O17      O      0.130310000000     0.079340000000     0.002040000000    -0.378183   
O18      O      0.853510000000     0.070270000000     0.988230000000    -0.376603   
O19      O      0.923330000000     0.001510000000     0.852600000000    -0.37795    
O20      O      0.082420000000     0.003610000000     0.862320000000    -0.378411   
O21      O      0.861250000000     0.996730000000     0.908740000000    -0.379791   
O22      O      0.138140000000     0.003010000000     0.924980000000    -0.376991   
O23      O      0.919240000000     0.853600000000     0.988080000000    -0.375537   
O24      O      0.910620000000     0.131120000000     0.994010000000    -0.379051   
O25      O      0.069360000000     0.136550000000     0.000270000000    -0.375965   
O26      O      0.078090000000     0.858550000000     0.000210000000    -0.377562   
O27      O      0.005510000000     0.920930000000     0.854490000000    -0.381542   
O28      O      0.002390000000     0.080690000000     0.860690000000    -0.372409   
O29      O      0.044960000000     0.048090000000     0.952140000000    -0.50718    
O30      O      0.949300000000     0.945650000000     0.941630000000    -0.507526   
O31      O      0.946970000000     0.044540000000     0.946480000000    -0.656958   
O32      O      0.048900000000     0.948600000000     0.947920000000    -0.652626   
O33      O      0.992480000000     0.351100000000     0.422990000000    -0.375969   
O34      O      0.011190000000     0.628090000000     0.409520000000    -0.378149   
O35      O      0.922300000000     0.488340000000     0.350680000000    -0.380323   
O36      O      0.081510000000     0.485990000000     0.362020000000    -0.376909   
O37      O      0.136550000000     0.487550000000     0.425270000000    -0.378463   
O38      O      0.859670000000     0.493940000000     0.406090000000    -0.374836   
O39      O      0.012030000000     0.566160000000     0.352890000000    -0.376874   
O40      O      0.998100000000     0.407110000000     0.360710000000    -0.378161   
O41      O      0.046060000000     0.539980000000     0.447080000000    -0.50943    
O42      O      0.945430000000     0.443600000000     0.445480000000    -0.507408   
O43      O      0.947800000000     0.543210000000     0.439330000000    -0.648371   
O44      O      0.044110000000     0.440660000000     0.451760000000    -0.648579   
O45      O      0.987670000000     0.637880000000     0.568190000000    -0.379765   
O46      O      0.981880000000     0.359910000000     0.583200000000    -0.378336   
O47      O      0.856360000000     0.577790000000     0.482320000000    -0.375882   
O48      O      0.133130000000     0.570990000000     0.499550000000    -0.379201   
O49      O      0.128440000000     0.412180000000     0.509000000000    -0.380341   
O50      O      0.852320000000     0.418050000000     0.486050000000    -0.375257   
O51      O      0.904400000000     0.508230000000     0.628530000000    -0.377141   
O52      O      0.062920000000     0.497530000000     0.640080000000    -0.377868   
O53      O      0.848780000000     0.500990000000     0.566080000000    -0.378576   
O54      O      0.125810000000     0.493230000000     0.584900000000    -0.376422   
O55      O      0.916850000000     0.635610000000     0.480760000000    -0.37996    
O56      O      0.909400000000     0.357480000000     0.494480000000    -0.375752   
O57      O      0.068450000000     0.353880000000     0.512320000000    -0.376603   
O58      O      0.076120000000     0.632050000000     0.494730000000    -0.375621   
O59      O      0.985480000000     0.581810000000     0.630560000000    -0.37858    
O60      O      0.983300000000     0.423030000000     0.638540000000    -0.379863   
O61      O      0.037310000000     0.446710000000     0.551000000000    -0.50869    
O62      O      0.941300000000     0.548150000000     0.539010000000    -0.51027    
O63      O      0.938310000000     0.448810000000     0.544680000000    -0.650287   
O64      O      0.040620000000     0.546360000000     0.546310000000    -0.652885   
O65      O      0.628260000000     0.002470000000     0.408620000000    -0.377809   
O66      O      0.351110000000     0.993680000000     0.421930000000    -0.377725   
O67      O      0.492380000000     0.925460000000     0.347210000000    -0.378266   
O68      O      0.483220000000     0.084540000000     0.365270000000    -0.377184   
O69      O      0.483660000000     0.137060000000     0.430780000000    -0.378425   
O70      O      0.494820000000     0.860520000000     0.400280000000    -0.376006   
O71      O      0.406860000000     0.001520000000     0.359730000000    -0.37711    
O72      O      0.566390000000     0.008910000000     0.352460000000    -0.378856   
O73      O      0.440430000000     0.043120000000     0.453000000000    -0.508376   
O74      O      0.541850000000     0.947320000000     0.437630000000    -0.505988   
O75      O      0.443000000000     0.944210000000     0.442210000000    -0.651723   
O76      O      0.539680000000     0.046230000000     0.448220000000    -0.652595   
O77      O      0.359400000000     0.977130000000     0.581420000000    -0.378036   
O78      O      0.636820000000     0.980030000000     0.566900000000    -0.378045   
O79      O      0.417380000000     0.849300000000     0.484490000000    -0.376522   
O80      O      0.411000000000     0.124540000000     0.518950000000    -0.381432   
O81      O      0.569870000000     0.130070000000     0.508420000000    -0.376415   
O82      O      0.576970000000     0.853740000000     0.476070000000    -0.375088   
O83      O      0.499760000000     0.895930000000     0.624910000000    -0.375413   
O84      O      0.504250000000     0.055120000000     0.642850000000    -0.376366   
O85      O      0.500030000000     0.842900000000     0.559830000000    -0.377184   
O86      O      0.500470000000     0.119190000000     0.588890000000    -0.375863   
O87      O      0.356930000000     0.906400000000     0.493590000000    -0.378616   
O88      O      0.634230000000     0.914730000000     0.478500000000    -0.376095   
O89      O      0.630630000000     0.073160000000     0.500130000000    -0.376261   
O90      O      0.353030000000     0.064980000000     0.508910000000    -0.379016   
O91      O      0.421370000000     0.971880000000     0.637620000000    -0.378941   
O92      O      0.580730000000     0.971490000000     0.628710000000    -0.379      
O93      O      0.544740000000     0.035410000000     0.547470000000    -0.506662   
O94      O      0.448190000000     0.934010000000     0.541570000000    -0.506039   
O95      O      0.546650000000     0.936820000000     0.536610000000    -0.653077   
O96      O      0.445450000000     0.032630000000     0.552660000000    -0.652513   
O97      O      0.407180000000     0.360860000000     0.025650000000    -0.377398   
O98      O      0.416310000000     0.634830000000     0.983210000000    -0.376692   
O99      O      0.358280000000     0.509070000000     0.085790000000    -0.377709   
O100     O      0.345920000000     0.492760000000     0.927050000000    -0.37913    
O101     O      0.400380000000     0.484550000000     0.863800000000    -0.376549   
O102     O      0.421080000000     0.512790000000     0.141150000000    -0.378783   
O103     O      0.355130000000     0.579110000000     0.995440000000    -0.377465   
O104     O      0.349980000000     0.421830000000     0.022310000000    -0.378865   
O105     O      0.439550000000     0.540070000000     0.945700000000    -0.508717   
O106     O      0.443590000000     0.452370000000     0.054700000000    -0.507298   
O107     O      0.446520000000     0.551010000000     0.044400000000    -0.651581   
O108     O      0.434970000000     0.440990000000     0.956140000000    -0.652762   
O109     O      0.575420000000     0.628790000000     0.976540000000    -0.376781   
O110     O      0.565590000000     0.352940000000     0.011040000000    -0.379118   
O111     O      0.503690000000     0.588440000000     0.126320000000    -0.378084   
O112     O      0.480860000000     0.558460000000     0.849440000000    -0.375997   
O113     O      0.474390000000     0.399650000000     0.867640000000    -0.377831   
O114     O      0.497790000000     0.429060000000     0.144460000000    -0.374731   
O115     O      0.634960000000     0.501280000000     0.065650000000    -0.375426   
O116     O      0.622180000000     0.473920000000     0.907520000000    -0.378511   
O117     O      0.580580000000     0.506820000000     0.129320000000    -0.377422   
O118     O      0.558920000000     0.475330000000     0.852450000000    -0.379365   
O119     O      0.499910000000     0.641070000000     0.061010000000    -0.379345   
O120     O      0.490640000000     0.364610000000     0.091230000000    -0.375051   
O121     O      0.477670000000     0.346360000000     0.932450000000    -0.379568   
O122     O      0.489660000000     0.623110000000     0.902120000000    -0.375149   
O123     O      0.632030000000     0.567210000000     0.975550000000    -0.378913   
O124     O      0.626400000000     0.409940000000     0.003280000000    -0.380252   
O125     O      0.534840000000     0.436830000000     0.948690000000    -0.506834   
O126     O      0.545650000000     0.546420000000     0.037500000000    -0.507073   
O127     O      0.541570000000     0.448290000000     0.048010000000    -0.651888   
O128     O      0.538030000000     0.535760000000     0.938010000000    -0.653647   
Zr1      Zr     0.989260000000     0.991730000000     0.096040000000     1.42354    
Zr2      Zr     0.997520000000     0.896500000000     0.992960000000     1.42544    
Zr3      Zr     0.991180000000     0.093570000000     0.001040000000     1.4351     
Zr4      Zr     0.896230000000     0.991840000000     0.990950000000     1.42917    
Zr5      Zr     0.092970000000     0.998230000000     0.002490000000     1.42761    
Zr6      Zr     0.000600000000     0.998940000000     0.897720000000     1.43023    
Zr7      Zr     0.999190000000     0.489080000000     0.396650000000     1.42491    
Zr8      Zr     0.995350000000     0.593570000000     0.490510000000     1.42415    
Zr9      Zr     0.989890000000     0.395600000000     0.501060000000     1.42402    
Zr10     Zr     0.894310000000     0.497050000000     0.488680000000     1.42743    
Zr11     Zr     0.090800000000     0.492400000000     0.502190000000     1.43311    
Zr12     Zr     0.986330000000     0.500320000000     0.594060000000     1.42956    
Zr13     Zr     0.488760000000     0.000560000000     0.396150000000     1.42435    
Zr14     Zr     0.395360000000     0.986920000000     0.499650000000     1.42533    
Zr15     Zr     0.592270000000     0.992780000000     0.490130000000     1.42774    
Zr16     Zr     0.496150000000     0.891570000000     0.484340000000     1.42943    
Zr17     Zr     0.491330000000     0.087870000000     0.505640000000     1.4283     
Zr18     Zr     0.498890000000     0.979670000000     0.593800000000     1.42647    
Zr19     Zr     0.392310000000     0.498320000000     0.003720000000     1.43106    
Zr20     Zr     0.494470000000     0.592020000000     0.986040000000     1.43133    
Zr21     Zr     0.487220000000     0.395750000000     0.007270000000     1.42526    
Zr22     Zr     0.497800000000     0.504640000000     0.095500000000     1.42753    
Zr23     Zr     0.482770000000     0.483260000000     0.898390000000     1.42586    
Zr24     Zr     0.588920000000     0.489800000000     0.989540000000     1.42436    


