data_structure

_audit_creation_method RASPA-1.0
_audit_creation_date 2023-5-25
_audit_author_name 'Poobodin Mano'

_cell_length_a    27.1416
_cell_length_b    27.104
_cell_length_c    27.2368
_cell_angle_alpha 90
_cell_angle_beta  90
_cell_angle_gamma 90
_cell_volume      20036.6

_symmetry_cell_setting          triclinic
_symmetry_space_group_name_Hall 'P 1'
_symmetry_space_group_name_H-M  'P 1'
_symmetry_Int_Tables_number     1

_symmetry_equiv_pos_as_xyz 'x,y,z'

loop_
_atom_site_label
_atom_site_type_symbol
_atom_site_fract_x
_atom_site_fract_y
_atom_site_fract_z
_atom_site_charge
C1       C      0.000950000000     0.129510000000     0.108350000000     0.393697   
C2       C      0.971430000000     0.879790000000     0.119350000000     0.391145   
C3       C      0.865010000000     0.018620000000     0.106670000000     0.397917   
C4       C      0.114500000000     0.985710000000     0.119820000000     0.393869   
C5       C      0.991150000000     0.865530000000     0.869850000000     0.392371   
C6       C      0.012320000000     0.116720000000     0.857790000000     0.392643   
C7       C      0.859850000000     0.882420000000     0.986160000000     0.392454   
C8       C      0.110080000000     0.862790000000     0.004130000000     0.394958   
C9       C      0.130860000000     0.113360000000     0.991300000000     0.392072   
C10      C      0.880190000000     0.133000000000     0.979470000000     0.393365   
C11      C      0.875210000000     0.996930000000     0.858350000000     0.394973   
C12      C      0.126310000000     0.983850000000     0.869490000000     0.392095   
C13      C      0.997260000000     0.376580000000     0.359250000000     0.392136   
C14      C      0.001520000000     0.627660000000     0.372250000000     0.3961     
C15      C      0.870370000000     0.500980000000     0.364950000000     0.391281   
C16      C      0.121660000000     0.507660000000     0.366750000000     0.392418   
C17      C      0.989910000000     0.616190000000     0.622420000000     0.391878   
C18      C      0.001530000000     0.364400000000     0.609720000000     0.394625   
C19      C      0.866420000000     0.618450000000     0.495940000000     0.392715   
C20      C      0.118350000000     0.625490000000     0.496880000000     0.392648   
C21      C      0.125030000000     0.373980000000     0.486010000000     0.393496   
C22      C      0.873540000000     0.366730000000     0.485220000000     0.392351   
C23      C      0.869530000000     0.484810000000     0.615150000000     0.392357   
C24      C      0.120930000000     0.490830000000     0.617580000000     0.391956   
C25      C      0.617960000000     0.999820000000     0.367370000000     0.393307   
C26      C      0.626630000000     0.981960000000     0.616450000000     0.393308   
C27      C      0.626470000000     0.117190000000     0.497670000000     0.391586   
C28      C      0.617920000000     0.865630000000     0.487580000000     0.392404   
C29      C      0.375210000000     0.991190000000     0.625600000000     0.393347   
C30      C      0.366760000000     0.012950000000     0.375850000000     0.391058   
C31      C      0.504140000000     0.113540000000     0.629050000000     0.393284   
C32      C      0.495540000000     0.861950000000     0.613350000000     0.392869   
C33      C      0.487230000000     0.878650000000     0.362820000000     0.392535   
C34      C      0.500340000000     0.129540000000     0.379010000000     0.392736   
C35      C      0.375910000000     0.124320000000     0.516570000000     0.396964   
C36      C      0.366550000000     0.873600000000     0.492130000000     0.391042   
C37      C      0.377160000000     0.362780000000     0.000480000000     0.392138   
C38      C      0.628110000000     0.381450000000     0.002820000000     0.394437   
C39      C      0.500670000000     0.364340000000     0.876100000000     0.391984   
C40      C      0.500120000000     0.379620000000     0.126370000000     0.39209    
C41      C      0.610020000000     0.632080000000     0.983110000000     0.391183   
C42      C      0.358870000000     0.613900000000     0.988490000000     0.393318   
C43      C      0.618280000000     0.503520000000     0.867950000000     0.395683   
C44      C      0.619720000000     0.511140000000     0.118510000000     0.390661   
C45      C      0.368460000000     0.499990000000     0.119120000000     0.394078   
C46      C      0.367710000000     0.481810000000     0.868500000000     0.390031   
C47      C      0.486240000000     0.615470000000     0.860990000000     0.392081   
C48      C      0.480470000000     0.630020000000     0.111430000000     0.394494   
C49      C      0.505500000000     0.157150000000     0.292310000000     0.0104212  
C50      C      0.488750000000     0.362970000000     0.215000000000     0.0139719  
C51      C      0.500780000000     0.292380000000     0.153890000000     0.0967029  
C52      C      0.517600000000     0.333990000000     0.253820000000    -0.107498   
C53      C      0.475220000000     0.195170000000     0.264050000000    -0.0992032  
C54      C      0.529860000000     0.264640000000     0.193700000000    -0.131354   
C55      C      0.492270000000     0.246630000000     0.277540000000     0.0125202  
C56      C      0.512320000000     0.279170000000     0.244510000000     0.0280065  
C57      C      0.514770000000     0.218300000000     0.362070000000     0.00943156 
C58      C      0.486760000000     0.257180000000     0.332000000000    -0.0995538  
C59      C      0.448190000000     0.272090000000     0.148770000000    -0.192157   
C60      C      0.482800000000     0.791770000000     0.334140000000     0.010288   
C61      C      0.459010000000     0.717190000000     0.128310000000     0.0139607  
C62      C      0.472290000000     0.656090000000     0.198270000000     0.0985934  
C63      C      0.481940000000     0.758480000000     0.159340000000    -0.107534   
C64      C      0.445700000000     0.767400000000     0.299600000000    -0.0987873  
C65      C      0.497020000000     0.697370000000     0.227890000000    -0.132276   
C66      C      0.458500000000     0.780610000000     0.247110000000     0.0121435  
C67      C      0.476720000000     0.747480000000     0.213660000000     0.0280893  
C68      C      0.491670000000     0.862070000000     0.273270000000     0.00967774 
C69      C      0.456040000000     0.835800000000     0.238160000000    -0.0993546  
C70      C      0.418970000000     0.647380000000     0.215100000000    -0.193391   
C71      C      0.491740000000     0.631930000000     0.771670000000     0.0093833  
C72      C      0.491720000000     0.834740000000     0.700090000000     0.0142648  
C73      C      0.486120000000     0.772360000000     0.629410000000     0.0955779  
C74      C      0.520620000000     0.796580000000     0.729620000000    -0.107243   
C75      C      0.461890000000     0.663390000000     0.735560000000    -0.0995608  
C76      C      0.513160000000     0.734670000000     0.662240000000    -0.131661   
C77      C      0.473100000000     0.717200000000     0.745180000000     0.0131664  
C78      C      0.502720000000     0.745670000000     0.715750000000     0.0290862  
C79      C      0.487680000000     0.702650000000     0.833580000000     0.00972214 
C80      C      0.457330000000     0.731970000000     0.796350000000    -0.0994653  
C81      C      0.430730000000     0.761030000000     0.626510000000    -0.191574   
C82      C      0.500370000000     0.336380000000     0.789360000000     0.00957884 
C83      C      0.515070000000     0.131160000000     0.717770000000     0.0133366  
C84      C      0.507060000000     0.201110000000     0.655040000000     0.0966083  
C85      C      0.486570000000     0.162440000000     0.755160000000    -0.107282   
C86      C      0.533890000000     0.300590000000     0.761680000000    -0.098856   
C87      C      0.478100000000     0.230550000000     0.693670000000    -0.131528   
C88      C      0.520000000000     0.248290000000     0.775450000000     0.0126389  
C89      C      0.495140000000     0.216690000000     0.744760000000     0.0287731  
C90      C      0.496070000000     0.274430000000     0.859500000000     0.00910389 
C91      C      0.528370000000     0.238940000000     0.829660000000    -0.099421   
C92      C      0.560380000000     0.219530000000     0.650460000000    -0.19195    
C93      C      0.651110000000     0.205270000000     0.497220000000     0.00903092 
C94      C      0.854440000000     0.277500000000     0.489420000000     0.0138968  
C95      C      0.785700000000     0.342580000000     0.491770000000     0.0961972  
C96      C      0.819480000000     0.242820000000     0.461940000000    -0.107708   
C97      C      0.688980000000     0.234890000000     0.526570000000    -0.098842   
C98      C      0.752260000000     0.305370000000     0.465040000000    -0.131567   
C99      C      0.739920000000     0.222500000000     0.507730000000     0.0127626  
C100     C      0.767210000000     0.253210000000     0.478180000000     0.029396   
C101     C      0.715140000000     0.136900000000     0.487580000000     0.00893175 
C102     C      0.751770000000     0.168640000000     0.516560000000    -0.0993851  
C103     C      0.772670000000     0.346100000000     0.546530000000    -0.191936   
C104     C      0.637560000000     0.776330000000     0.490370000000     0.00917955 
C105     C      0.841510000000     0.706370000000     0.494070000000     0.013635   
C106     C      0.777180000000     0.636910000000     0.489810000000     0.0957793  
C107     C      0.804330000000     0.737330000000     0.522910000000    -0.107136   
C108     C      0.672160000000     0.742410000000     0.461370000000    -0.0993358  
C109     C      0.741150000000     0.671010000000     0.517430000000    -0.131631   
C110     C      0.724800000000     0.753750000000     0.475840000000     0.01339    
C111     C      0.752950000000     0.724300000000     0.505830000000     0.0292083  
C112     C      0.705800000000     0.841340000000     0.491940000000     0.00972274 
C113     C      0.738190000000     0.806130000000     0.462210000000    -0.0997263  
C114     C      0.764340000000     0.633830000000     0.434960000000    -0.191629   
C115     C      0.213970000000     0.351780000000     0.490040000000     0.0101377  
C116     C      0.291390000000     0.146290000000     0.542680000000     0.0155009  
C117     C      0.355020000000     0.212890000000     0.527840000000     0.0980917  
C118     C      0.251990000000     0.176270000000     0.516030000000    -0.106637   
C119     C      0.236810000000     0.320250000000     0.530680000000    -0.0985309  
C120     C      0.315990000000     0.244010000000     0.501040000000    -0.131396   
C121     C      0.227190000000     0.265910000000     0.520700000000     0.0118114  
C122     C      0.263620000000     0.231080000000     0.516580000000     0.0266005  
C123     C      0.149950000000     0.286450000000     0.475320000000     0.0109408  
C124     C      0.172670000000     0.253790000000     0.515220000000    -0.0991478  
C125     C      0.362210000000     0.230360000000     0.581030000000    -0.193103   
C126     C      0.277540000000     0.853930000000     0.498480000000     0.00935033 
C127     C      0.206180000000     0.650170000000     0.492910000000     0.0133101  
C128     C      0.137160000000     0.714980000000     0.494080000000     0.0969928  
C129     C      0.238200000000     0.685610000000     0.522760000000    -0.106883   
C130     C      0.242520000000     0.821220000000     0.468630000000    -0.0992921  
C131     C      0.172210000000     0.749420000000     0.522520000000    -0.131918   
C132     C      0.253910000000     0.767700000000     0.479800000000     0.0132919  
C133     C      0.225050000000     0.737990000000     0.508860000000     0.0283324  
C134     C      0.342060000000     0.785490000000     0.494090000000     0.00979826 
C135     C      0.305720000000     0.754770000000     0.463920000000    -0.0995287  
C136     C      0.132780000000     0.730520000000     0.440040000000    -0.193094   
C137     C      0.708520000000     0.511630000000     0.139740000000     0.00911224 
C138     C      0.781920000000     0.507450000000     0.342990000000     0.0136023  
C139     C      0.849070000000     0.511920000000     0.276980000000     0.0955519  
C140     C      0.748940000000     0.479940000000     0.306540000000    -0.107128   
C141     C      0.740590000000     0.541940000000     0.174850000000    -0.099065   
C142     C      0.813440000000     0.485520000000     0.241570000000    -0.131232   
C143     C      0.729620000000     0.526070000000     0.226990000000     0.0128628  
C144     C      0.760560000000     0.497400000000     0.255040000000     0.028755   
C145     C      0.642580000000     0.507240000000     0.206580000000     0.00895762 
C146     C      0.676580000000     0.537350000000     0.240060000000    -0.0991975  
C147     C      0.852100000000     0.567380000000     0.265750000000    -0.191312   
C148     C      0.209920000000     0.517170000000     0.344180000000     0.00939737 
C149     C      0.280040000000     0.497750000000     0.141900000000     0.0133714  
C150     C      0.347540000000     0.503280000000     0.207750000000     0.0952035  
C151     C      0.248230000000     0.532280000000     0.173020000000    -0.106638   
C152     C      0.242150000000     0.485200000000     0.310700000000    -0.0992279  
C153     C      0.312560000000     0.536110000000     0.238060000000    -0.130777   
C154     C      0.229600000000     0.496610000000     0.257640000000     0.0129601  
C155     C      0.259630000000     0.522880000000     0.226580000000     0.0279271  
C156     C      0.143360000000     0.516720000000     0.278630000000     0.00999    
C157     C      0.176320000000     0.484230000000     0.246510000000    -0.0998089  
C158     C      0.349810000000     0.450590000000     0.228320000000    -0.191319   
C159     C      0.345810000000     0.482510000000     0.780140000000     0.00928859 
C160     C      0.141900000000     0.479350000000     0.705440000000     0.0133438  
C161     C      0.209400000000     0.483960000000     0.639820000000     0.0967224  
C162     C      0.176150000000     0.506310000000     0.741130000000    -0.107047   
C163     C      0.311680000000     0.451700000000     0.747470000000    -0.0991422  
C164     C      0.242720000000     0.509440000000     0.678040000000    -0.131433   
C165     C      0.258770000000     0.464740000000     0.759230000000     0.0133676  
C166     C      0.229030000000     0.492960000000     0.729460000000     0.0281705  
C167     C      0.279090000000     0.481670000000     0.846400000000     0.00929083 
C168     C      0.246640000000     0.451120000000     0.811780000000    -0.099531   
C169     C      0.223980000000     0.429700000000     0.632730000000    -0.192773   
C170     C      0.845150000000     0.480970000000     0.703030000000     0.0111311  
C171     C      0.638090000000     0.518570000000     0.780520000000     0.0145164  
C172     C      0.706340000000     0.508040000000     0.843570000000     0.098364   
C173     C      0.667110000000     0.488010000000     0.743190000000    -0.106867   
C174     C      0.809180000000     0.515310000000     0.729390000000    -0.0991504  
C175     C      0.735040000000     0.476700000000     0.806230000000    -0.13169    
C176     C      0.756460000000     0.500160000000     0.718210000000     0.012473   
C177     C      0.721950000000     0.490630000000     0.753770000000     0.0267702  
C178     C      0.782500000000     0.466650000000     0.636400000000     0.0105545  
C179     C      0.744960000000     0.498880000000     0.663550000000    -0.0993029  
C180     C      0.726010000000     0.561120000000     0.845720000000    -0.19332    
C181     C      0.626050000000     0.720670000000     0.966130000000     0.00932394 
C182     C      0.830490000000     0.795820000000     0.986670000000     0.0125471  
C183     C      0.769580000000     0.867860000000     0.989710000000     0.0929123  
C184     C      0.794940000000     0.768480000000     0.952830000000    -0.106111   
C185     C      0.655360000000     0.760400000000     0.993780000000    -0.100433   
C186     C      0.733250000000     0.836890000000     0.958700000000    -0.130178   
C187     C      0.710150000000     0.750560000000     0.988580000000     0.0119595  
C188     C      0.742690000000     0.782270000000     0.966330000000     0.0270852  
C189     C      0.696750000000     0.660630000000     0.977400000000     0.0090822  
C190     C      0.724170000000     0.699750000000     0.007140000000    -0.0974876  
C191     C      0.754220000000     0.868750000000     0.043990000000    -0.189205   
C192     C      0.793300000000     0.161600000000     0.980670000000     0.00968289 
C193     C      0.717020000000     0.365800000000     0.017070000000     0.0150561  
C194     C      0.656580000000     0.294600000000     0.006420000000     0.100688   
C195     C      0.756330000000     0.337210000000     0.988180000000    -0.109569   
C196     C      0.770270000000     0.195660000000     0.018870000000    -0.0978586  
C197     C      0.695460000000     0.267670000000     0.975560000000    -0.133553   
C198     C      0.782060000000     0.248590000000     0.005520000000     0.0126135  
C199     C      0.747050000000     0.282150000000     0.991360000000     0.0275393  
C200     C      0.862820000000     0.222620000000     0.969300000000     0.00815262 
C201     C      0.837130000000     0.258790000000     0.004530000000    -0.0967963  
C202     C      0.654550000000     0.274630000000     0.059150000000    -0.193702   
C203     C      0.268930000000     0.630180000000     0.982130000000     0.00859139 
C204     C      0.196480000000     0.833700000000     0.010100000000     0.01714    
C205     C      0.124840000000     0.774030000000     0.021690000000     0.096328   
C206     C      0.222870000000     0.795110000000     0.979070000000    -0.108361   
C207     C      0.234600000000     0.656120000000     0.018760000000    -0.0980235  
C208     C      0.154530000000     0.733910000000     0.994230000000    -0.133277   
C209     C      0.243170000000     0.711390000000     0.015950000000     0.012835   
C210     C      0.209450000000     0.744090000000     0.997330000000     0.0268633  
C211     C      0.329660000000     0.700790000000     0.989100000000     0.0094624  
C212     C      0.296130000000     0.724920000000     0.027230000000    -0.0980452  
C213     C      0.126400000000     0.765830000000     0.077490000000    -0.191937   
C214     C      0.362000000000     0.272580000000     0.998780000000     0.00516601 
C215     C      0.159130000000     0.200190000000     0.993850000000     0.0131605  
C216     C      0.219840000000     0.128700000000     0.005780000000     0.0977518  
C217     C      0.199240000000     0.228240000000     0.966250000000    -0.106995   
C218     C      0.329980000000     0.237180000000     0.029040000000    -0.0973812  
C219     C      0.259840000000     0.160340000000     0.980530000000    -0.132655   
C220     C      0.276430000000     0.245880000000     0.016200000000     0.0131463  
C221     C      0.248790000000     0.214660000000     0.987640000000     0.0282648  
C222     C      0.290560000000     0.333930000000     0.997470000000     0.00622084 
C223     C      0.260960000000     0.297900000000     0.028990000000    -0.0975558  
C224     C      0.227300000000     0.127450000000     0.061680000000    -0.191739   
C225     C      0.652340000000     0.979980000000     0.703620000000     0.00926172 
C226     C      0.855710000000     0.984090000000     0.770510000000     0.0129114  
C227     C      0.787200000000     0.991400000000     0.835330000000     0.0969514  
C228     C      0.821450000000     0.008860000000     0.733280000000    -0.106229   
C229     C      0.688560000000     0.948970000000     0.733630000000    -0.09931    
C230     C      0.754630000000     0.015340000000     0.795780000000    -0.131421   
C231     C      0.740320000000     0.963510000000     0.719240000000     0.0140574  
C232     C      0.768750000000     0.995780000000     0.745770000000     0.0284639  
C233     C      0.716060000000     0.981170000000     0.633970000000     0.00935391 
C234     C      0.750250000000     0.950170000000     0.666340000000    -0.100023   
C235     C      0.772040000000     0.937660000000     0.845040000000    -0.192947   
C236     C      0.215840000000     0.983240000000     0.851760000000     0.00857496 
C237     C      0.287450000000     0.987560000000     0.650300000000     0.0128323  
C238     C      0.356760000000     0.980850000000     0.714180000000     0.0950372  
C239     C      0.256840000000     0.015890000000     0.688020000000    -0.105974   
C240     C      0.249580000000     0.952510000000     0.818580000000    -0.0993387  
C241     C      0.322940000000     0.007700000000     0.750990000000    -0.130104   
C242     C      0.239680000000     0.966670000000     0.765790000000     0.0136284  
C243     C      0.269590000000     0.997140000000     0.738710000000     0.0282898  
C244     C      0.152240000000     0.984990000000     0.782320000000     0.0089251  
C245     C      0.187490000000     0.953720000000     0.751480000000    -0.0994432  
C246     C      0.359260000000     0.925290000000     0.725030000000    -0.191256   
C247     C      0.342660000000     0.033930000000     0.290520000000     0.011993   
C248     C      0.132610000000     0.971540000000     0.207980000000     0.0149041  
C249     C      0.199940000000     0.965300000000     0.144810000000     0.0975818  
C250     C      0.166840000000     0.998230000000     0.244010000000    -0.105617   
C251     C      0.311670000000     0.003110000000     0.255270000000    -0.0974734  
C252     C      0.235790000000     0.993870000000     0.177900000000    -0.130304   
C253     C      0.256820000000     0.003040000000     0.267880000000     0.0117513  
C254     C      0.221700000000     0.994500000000     0.232140000000     0.0243756  
C255     C      0.279020000000     0.030220000000     0.355880000000     0.0111528  
C256     C      0.243490000000     0.001700000000     0.322490000000    -0.0975565  
C257     C      0.208150000000     0.909230000000     0.148340000000    -0.192774   
C258     C      0.639550000000     0.013980000000     0.280360000000     0.0116725  
C259     C      0.838760000000     0.045910000000     0.189340000000     0.0155226  
C260     C      0.776340000000     0.013580000000     0.128070000000     0.0982063  
C261     C      0.817890000000     0.012680000000     0.229540000000    -0.105061   
C262     C      0.674720000000     0.991610000000     0.242380000000    -0.100784   
C263     C      0.755040000000     0.979310000000     0.167740000000    -0.13105    
C264     C      0.728570000000     0.001080000000     0.254520000000     0.0130521  
C265     C      0.764380000000     0.999530000000     0.219080000000     0.024451   
C266     C      0.704550000000     0.988370000000     0.343060000000     0.0108652  
C267     C      0.741000000000     0.012340000000     0.307700000000    -0.0993534  
C268     C      0.745430000000     0.060690000000     0.122180000000    -0.192623   
C269     C      0.023900000000     0.134590000000     0.768970000000     0.0103013  
C270     C      0.004430000000     0.337960000000     0.696830000000     0.0147107  
C271     C      0.000520000000     0.274460000000     0.627130000000     0.0959263  
C272     C      0.039750000000     0.303730000000     0.724160000000    -0.106682   
C273     C      0.992320000000     0.165770000000     0.734060000000    -0.10108    
C274     C      0.033860000000     0.240380000000     0.658070000000    -0.130891   
C275     C      0.002030000000     0.220000000000     0.743980000000     0.0147739  
C276     C      0.026360000000     0.250920000000     0.712200000000     0.0279352  
C277     C      0.021560000000     0.203990000000     0.831360000000     0.0108931  
C278     C      0.988960000000     0.233670000000     0.796350000000    -0.101267   
C279     C      0.946610000000     0.257310000000     0.628570000000    -0.192101   
C280     C      0.980150000000     0.634660000000     0.711270000000     0.00835108 
C281     C      0.994080000000     0.838800000000     0.782870000000     0.0126682  
C282     C      0.993040000000     0.775520000000     0.852930000000     0.0941134  
C283     C      0.961690000000     0.803940000000     0.752830000000    -0.10619    
C284     C      0.010510000000     0.666200000000     0.746980000000    -0.098687   
C285     C      0.962910000000     0.740880000000     0.819430000000    -0.130394   
C286     C      0.001270000000     0.720300000000     0.736200000000     0.0138329  
C287     C      0.974700000000     0.751330000000     0.766060000000     0.0272378  
C288     C      0.985360000000     0.703850000000     0.648330000000     0.00894916 
C289     C      0.016960000000     0.733270000000     0.684440000000    -0.0989109  
C290     C      0.047050000000     0.758930000000     0.856240000000    -0.190167   
C291     C      0.945600000000     0.795590000000     0.143850000000     0.0122298  
C292     C      0.013220000000     0.716340000000     0.352670000000     0.0160376  
C293     C      0.018500000000     0.652070000000     0.286220000000     0.0986018  
C294     C      0.983140000000     0.750700000000     0.319630000000    -0.106336   
C295     C      0.975220000000     0.759870000000     0.175340000000    -0.0982001  
C296     C      0.987000000000     0.683630000000     0.251610000000    -0.131883   
C297     C      0.976060000000     0.773590000000     0.229770000000     0.0111866  
C298     C      0.985710000000     0.738290000000     0.264970000000     0.0248911  
C299     C      0.949740000000     0.861990000000     0.206260000000     0.0116267  
C300     C      0.976850000000     0.828560000000     0.242740000000    -0.0986819  
C301     C      0.073850000000     0.657730000000     0.275320000000    -0.193302   
C302     C      0.991670000000     0.359470000000     0.269890000000     0.00756512 
C303     C      0.003200000000     0.155810000000     0.195570000000     0.0157143  
C304     C      0.011720000000     0.218750000000     0.126050000000     0.0968418  
C305     C      0.972220000000     0.193160000000     0.224050000000    -0.107795   
C306     C      0.024250000000     0.329080000000     0.235250000000    -0.0983046  
C307     C      0.982650000000     0.256020000000     0.157660000000    -0.132038   
C308     C      0.014400000000     0.274770000000     0.244070000000     0.0131667  
C309     C      0.989680000000     0.244710000000     0.211750000000     0.0279566  
C310     C      0.994100000000     0.289220000000     0.331740000000     0.00791138 
C311     C      0.027020000000     0.260300000000     0.296320000000    -0.0983572  
C312     C      0.067160000000     0.230140000000     0.126670000000    -0.191898   
H1       H      0.915700000000     0.937380000000     0.058450000000     0.210185   
H2       H      0.068550000000     0.065610000000     0.059420000000     0.20692    
H3       H      0.933780000000     0.070120000000     0.911770000000     0.207334   
H4       H      0.063130000000     0.918200000000     0.925390000000     0.207358   
H5       H      0.924190000000     0.568750000000     0.423580000000     0.206869   
H6       H      0.068740000000     0.431090000000     0.417710000000     0.208548   
H7       H      0.927490000000     0.420430000000     0.557170000000     0.20819    
H8       H      0.064250000000     0.565430000000     0.565540000000     0.207784   
H9       H      0.572000000000     0.059410000000     0.568360000000     0.208566   
H10      H      0.562040000000     0.927380000000     0.419220000000     0.208629   
H11      H      0.426120000000     0.073810000000     0.433620000000     0.207879   
H12      H      0.426230000000     0.922990000000     0.564100000000     0.208127   
H13      H      0.569080000000     0.428190000000     0.927220000000     0.206604   
H14      H      0.428020000000     0.426840000000     0.068120000000     0.207688   
H15      H      0.418000000000     0.558920000000     0.919600000000     0.209017   
H16      H      0.559160000000     0.577730000000     0.059620000000     0.207172   
H17      H      0.475500000000     0.186670000000     0.224390000000     0.0395606  
H18      H      0.448690000000     0.358200000000     0.222190000000     0.0217292  
H19      H      0.554960000000     0.225000000000     0.357650000000     0.0286269  
H20      H      0.501180000000     0.293340000000     0.343860000000     0.0399588  
H21      H      0.503700000000     0.346580000000     0.289770000000     0.0416011  
H22      H      0.530530000000     0.224550000000     0.186250000000     0.0485745  
H23      H      0.491160000000     0.119900000000     0.282980000000     0.0332821  
H24      H      0.497080000000     0.402750000000     0.220390000000     0.0324269  
H25      H      0.447030000000     0.255990000000     0.341860000000     0.0464212  
H26      H      0.569150000000     0.275900000000     0.190560000000     0.0541782  
H27      H      0.505880000000     0.224210000000     0.401470000000     0.0337053  
H28      H      0.435990000000     0.191320000000     0.275220000000     0.0473799  
H29      H      0.557220000000     0.344230000000     0.251790000000     0.0496391  
H30      H      0.519980000000     0.284880000000     0.118550000000     0.0138352  
H31      H      0.544400000000     0.159010000000     0.279570000000     0.0282165  
H32      H      0.427030000000     0.276890000000     0.183340000000     0.0666255  
H33      H      0.449230000000     0.232210000000     0.139400000000     0.0587368  
H34      H      0.428560000000     0.291770000000     0.118810000000     0.06993    
H35      H      0.442500000000     0.727420000000     0.307030000000     0.0395013  
H36      H      0.418210000000     0.720220000000     0.130660000000     0.0251519  
H37      H      0.530020000000     0.853450000000     0.261660000000     0.0258556  
H38      H      0.465780000000     0.847620000000     0.200620000000     0.0397257  
H39      H      0.463110000000     0.792680000000     0.147670000000     0.0416011  
H40      H      0.495930000000     0.688630000000     0.267510000000     0.0491542  
H41      H      0.471930000000     0.782980000000     0.372490000000     0.0337944  
H42      H      0.469050000000     0.724100000000     0.089360000000     0.0329384  
H43      H      0.417890000000     0.848910000000     0.245310000000     0.0481097  
H44      H      0.536960000000     0.697320000000     0.218690000000     0.054534   
H45      H      0.486530000000     0.902480000000     0.268790000000     0.0338426  
H46      H      0.408520000000     0.782460000000     0.307990000000     0.0492681  
H47      H      0.521680000000     0.762150000000     0.150210000000     0.0483     
H48      H      0.493180000000     0.621780000000     0.206670000000     0.0139058  
H49      H      0.519790000000     0.775350000000     0.327620000000     0.0259417  
H50      H      0.396100000000     0.680970000000     0.210070000000     0.067806   
H51      H      0.418200000000     0.636800000000     0.254500000000     0.059226   
H52      H      0.402350000000     0.616870000000     0.193500000000     0.0742941  
H53      H      0.468990000000     0.650370000000     0.697900000000     0.0395665  
H54      H      0.452650000000     0.834310000000     0.712370000000     0.0219183  
H55      H      0.526680000000     0.715150000000     0.831660000000     0.028472   
H56      H      0.459040000000     0.771970000000     0.804080000000     0.03973    
H57      H      0.519340000000     0.805070000000     0.769280000000     0.0423209  
H58      H      0.504540000000     0.696910000000     0.649880000000     0.048543   
H59      H      0.480320000000     0.592850000000     0.766770000000     0.0335004  
H60      H      0.506870000000     0.871740000000     0.709090000000     0.0325395  
H61      H      0.417840000000     0.722210000000     0.801350000000     0.0470852  
H62      H      0.553450000000     0.738680000000     0.655930000000     0.0545724  
H63      H      0.473770000000     0.711730000000     0.870880000000     0.0333856  
H64      H      0.421990000000     0.656660000000     0.742050000000     0.0464783  
H65      H      0.560250000000     0.799850000000     0.719700000000     0.050724   
H66      H      0.501230000000     0.767320000000     0.591760000000     0.0158823  
H67      H      0.531400000000     0.634330000000     0.761610000000     0.0287776  
H68      H      0.413050000000     0.764410000000     0.663120000000     0.0670165  
H69      H      0.424670000000     0.723050000000     0.612400000000     0.0593253  
H70      H      0.412510000000     0.787260000000     0.600980000000     0.0695518  
H71      H      0.533900000000     0.308630000000     0.721920000000     0.0392267  
H72      H      0.555100000000     0.134230000000     0.725940000000     0.0240012  
H73      H      0.456880000000     0.263290000000     0.854970000000     0.0288137  
H74      H      0.520960000000     0.201070000000     0.842370000000     0.0398243  
H75      H      0.497210000000     0.149860000000     0.792120000000     0.0420029  
H76      H      0.478370000000     0.270420000000     0.685210000000     0.0483239  
H77      H      0.512290000000     0.374570000000     0.780420000000     0.0328274  
H78      H      0.504710000000     0.091920000000     0.723590000000     0.0331453  
H79      H      0.567710000000     0.246230000000     0.838500000000     0.0465313  
H80      H      0.438580000000     0.220150000000     0.690340000000     0.0533537  
H81      H      0.505420000000     0.269650000000     0.898930000000     0.0339017  
H82      H      0.572560000000     0.307440000000     0.773410000000     0.046708   
H83      H      0.446570000000     0.154360000000     0.751470000000     0.0496619  
H84      H      0.488750000000     0.208700000000     0.619260000000     0.0141712  
H85      H      0.461970000000     0.331870000000     0.775790000000     0.0283941  
H86      H      0.580960000000     0.214210000000     0.685290000000     0.0674096  
H87      H      0.560860000000     0.259340000000     0.640780000000     0.0587128  
H88      H      0.579660000000     0.198920000000     0.620890000000     0.0698554  
H89      H      0.679520000000     0.274510000000     0.526640000000     0.0389368  
H90      H      0.855420000000     0.266580000000     0.528770000000     0.0226754  
H91      H      0.723040000000     0.141070000000     0.447730000000     0.0294169  
H92      H      0.789660000000     0.157140000000     0.507630000000     0.0398289  
H93      H      0.832190000000     0.204500000000     0.466630000000     0.0421634  
H94      H      0.712930000000     0.314290000000     0.470540000000     0.0489953  
H95      H      0.614170000000     0.212650000000     0.513230000000     0.032125   
H96      H      0.892100000000     0.271690000000     0.474450000000     0.0328376  
H97      H      0.747320000000     0.160420000000     0.556320000000     0.0463933  
H98      H      0.757760000000     0.310340000000     0.424860000000     0.0550092  
H99      H      0.721940000000     0.097640000000     0.497250000000     0.0337277  
H100     H      0.686340000000     0.223670000000     0.565780000000     0.045189   
H101     H      0.822640000000     0.250300000000     0.421910000000     0.050313   
H102     H      0.777620000000     0.379300000000     0.475320000000     0.0156544  
H103     H      0.650660000000     0.219060000000     0.458760000000     0.0290528  
H104     H      0.779060000000     0.310380000000     0.565450000000     0.066975   
H105     H      0.733430000000     0.356790000000     0.551180000000     0.0588371  
H106     H      0.795840000000     0.374660000000     0.564450000000     0.0698231  
H107     H      0.660560000000     0.703700000000     0.465850000000     0.03958    
H108     H      0.841470000000     0.718710000000     0.455130000000     0.0244237  
H109     H      0.716430000000     0.838840000000     0.531310000000     0.0292063  
H110     H      0.777480000000     0.815770000000     0.466300000000     0.0402368  
H111     H      0.813930000000     0.776860000000     0.520940000000     0.0424101  
H112     H      0.702740000000     0.659480000000     0.510850000000     0.0486926  
H113     H      0.599490000000     0.770390000000     0.476540000000     0.0334576  
H114     H      0.878760000000     0.714190000000     0.509150000000     0.0330896  
H115     H      0.730300000000     0.811910000000     0.422540000000     0.0471788  
H116     H      0.746510000000     0.665150000000     0.557500000000     0.0545475  
H117     H      0.714000000000     0.879550000000     0.479540000000     0.0337719  
H118     H      0.667430000000     0.750210000000     0.421550000000     0.0464454  
H119     H      0.807860000000     0.727900000000     0.562500000000     0.0503776  
H120     H      0.771570000000     0.599330000000     0.505330000000     0.0159849  
H121     H      0.638070000000     0.764920000000     0.529600000000     0.0292522  
H122     H      0.768530000000     0.670310000000     0.416870000000     0.0673656  
H123     H      0.725820000000     0.620890000000     0.430030000000     0.0592722  
H124     H      0.789210000000     0.607150000000     0.416420000000     0.0697123  
H125     H      0.275750000000     0.330580000000     0.536120000000     0.0386493  
H126     H      0.288050000000     0.153310000000     0.582760000000     0.0244902  
H127     H      0.166020000000     0.275560000000     0.439330000000     0.0249057  
H128     H      0.164920000000     0.215350000000     0.504010000000     0.0402831  
H129     H      0.217250000000     0.167620000000     0.535640000000     0.0418316  
H130     H      0.326080000000     0.283280000000     0.504400000000     0.0486404  
H131     H      0.219870000000     0.391300000000     0.499150000000     0.0321472  
H132     H      0.282990000000     0.106560000000     0.537200000000     0.033736   
H133     H      0.153660000000     0.260530000000     0.550740000000     0.0492009  
H134     H      0.318840000000     0.235810000000     0.461130000000     0.0544727  
H135     H      0.109800000000     0.278750000000     0.473390000000     0.0335218  
H136     H      0.218460000000     0.329810000000     0.565900000000     0.0475146  
H137     H      0.248780000000     0.163500000000     0.477380000000     0.049289   
H138     H      0.390500000000     0.219510000000     0.508450000000     0.0137366  
H139     H      0.233650000000     0.343980000000     0.455060000000     0.0251733  
H140     H      0.327060000000     0.229510000000     0.601860000000     0.0673024  
H141     H      0.376580000000     0.268740000000     0.581460000000     0.0589489  
H142     H      0.389400000000     0.206300000000     0.599900000000     0.0728371  
H143     H      0.204130000000     0.832840000000     0.474970000000     0.0396531  
H144     H      0.217240000000     0.652380000000     0.453650000000     0.0262563  
H145     H      0.340600000000     0.772960000000     0.532950000000     0.0240511  
H146     H      0.315270000000     0.715230000000     0.465740000000     0.0397919  
H147     H      0.277510000000     0.675880000000     0.519120000000     0.0415316  
H148     H      0.160700000000     0.788210000000     0.518210000000     0.0485479  
H149     H      0.271170000000     0.892850000000     0.487310000000     0.0340461  
H150     H      0.214320000000     0.612060000000     0.505610000000     0.0323458  
H151     H      0.310300000000     0.764630000000     0.424530000000     0.0480914  
H152     H      0.167460000000     0.742030000000     0.562420000000     0.0528416  
H153     H      0.379770000000     0.777680000000     0.480230000000     0.0332547  
H154     H      0.249130000000     0.828160000000     0.428920000000     0.0477243  
H155     H      0.229910000000     0.679990000000     0.562380000000     0.0481019  
H156     H      0.100090000000     0.720030000000     0.510820000000     0.0145115  
H157     H      0.267670000000     0.850890000000     0.538000000000     0.0262752  
H158     H      0.168820000000     0.727620000000     0.420960000000     0.0686485  
H159     H      0.119340000000     0.769130000000     0.437290000000     0.0597516  
H160     H      0.106030000000     0.706190000000     0.420950000000     0.0749808  
H161     H      0.779550000000     0.539850000000     0.163610000000     0.0394346  
H162     H      0.770750000000     0.546910000000     0.343720000000     0.0218144  
H163     H      0.645740000000     0.467600000000     0.216670000000     0.0292086  
H164     H      0.666470000000     0.531620000000     0.278850000000     0.0396028  
H165     H      0.710090000000     0.483200000000     0.317870000000     0.0421416  
H166     H      0.823970000000     0.492750000000     0.203120000000     0.0486967  
H167     H      0.714610000000     0.525940000000     0.101970000000     0.0333617  
H168     H      0.774680000000     0.492170000000     0.380160000000     0.032632   
H169     H      0.669460000000     0.577210000000     0.233350000000     0.0463645  
H170     H      0.818880000000     0.445070000000     0.245870000000     0.0549064  
H171     H      0.604000000000     0.518710000000     0.214160000000     0.0334438  
H172     H      0.730730000000     0.581550000000     0.170620000000     0.0462724  
H173     H      0.757250000000     0.439830000000     0.309140000000     0.0506055  
H174     H      0.886250000000     0.496240000000     0.269610000000     0.0155731  
H175     H      0.721360000000     0.472660000000     0.140310000000     0.0291321  
H176     H      0.815940000000     0.585640000000     0.271550000000     0.0667686  
H177     H      0.863810000000     0.573380000000     0.227120000000     0.0588814  
H178     H      0.879680000000     0.585120000000     0.290170000000     0.0685797  
H179     H      0.281280000000     0.489230000000     0.320830000000     0.0395259  
H180     H      0.267810000000     0.459090000000     0.148080000000     0.0243175  
H181     H      0.148030000000     0.555840000000     0.267150000000     0.0251485  
H182     H      0.165060000000     0.487460000000     0.207770000000     0.0397364  
H183     H      0.209220000000     0.528850000000     0.162330000000     0.0412768  
H184     H      0.322720000000     0.535860000000     0.277300000000     0.0476707  
H185     H      0.217640000000     0.506760000000     0.382870000000     0.0334621  
H186     H      0.273000000000     0.506510000000     0.102660000000     0.0334429  
H187     H      0.169490000000     0.444940000000     0.256170000000     0.0474187  
H188     H      0.318750000000     0.575070000000     0.226780000000     0.0516417  
H189     H      0.104410000000     0.506440000000     0.271390000000     0.0333457  
H190     H      0.233500000000     0.445770000000     0.318060000000     0.0470977  
H191     H      0.258120000000     0.571030000000     0.163830000000     0.048806   
H192     H      0.384960000000     0.519380000000     0.212400000000     0.0144357  
H193     H      0.220960000000     0.556420000000     0.339550000000     0.0268138  
H194     H      0.313450000000     0.432020000000     0.225560000000     0.0673637  
H195     H      0.361410000000     0.451200000000     0.267430000000     0.0588316  
H196     H      0.377190000000     0.428600000000     0.207350000000     0.068457   
H197     H      0.322410000000     0.455390000000     0.708590000000     0.0393975  
H198     H      0.143220000000     0.439150000000     0.713520000000     0.026317   
H199     H      0.267040000000     0.520850000000     0.844700000000     0.0270538  
H200     H      0.207660000000     0.454870000000     0.822460000000     0.0401377  
H201     H      0.164110000000     0.499030000000     0.779070000000     0.042001   
H202     H      0.281860000000     0.505240000000     0.667940000000     0.0484343  
H203     H      0.384240000000     0.470050000000     0.773440000000     0.0341016  
H204     H      0.103650000000     0.491910000000     0.712960000000     0.0327567  
H205     H      0.255220000000     0.411400000000     0.817530000000     0.0483377  
H206     H      0.236210000000     0.549890000000     0.675550000000     0.0530164  
H207     H      0.272420000000     0.468520000000     0.884490000000     0.0340494  
H208     H      0.317800000000     0.412040000000     0.756020000000     0.0479647  
H209     H      0.171240000000     0.546730000000     0.736020000000     0.0485553  
H210     H      0.216430000000     0.502950000000     0.604270000000     0.0140666  
H211     H      0.343470000000     0.521780000000     0.768520000000     0.0269818  
H212     H      0.219050000000     0.408390000000     0.667200000000     0.0685148  
H213     H      0.263080000000     0.426890000000     0.620980000000     0.0590928  
H214     H      0.200660000000     0.412800000000     0.603750000000     0.0742489  
H215     H      0.818880000000     0.517620000000     0.768660000000     0.0400099  
H216     H      0.644820000000     0.558330000000     0.772960000000     0.025264   
H217     H      0.775780000000     0.427500000000     0.646740000000     0.0224263  
H218     H      0.708600000000     0.482840000000     0.654590000000     0.0396639  
H219     H      0.656700000000     0.503230000000     0.706980000000     0.041675   
H220     H      0.774670000000     0.477050000000     0.815300000000     0.0487475  
H221     H      0.883250000000     0.493950000000     0.710550000000     0.0335051  
H222     H      0.598230000000     0.512120000000     0.773850000000     0.0335772  
H223     H      0.746140000000     0.537060000000     0.648700000000     0.0490747  
H224     H      0.723900000000     0.437560000000     0.811460000000     0.0540841  
H225     H      0.775440000000     0.469720000000     0.596340000000     0.031925   
H226     H      0.814700000000     0.553330000000     0.715050000000     0.0504242  
H227     H      0.654900000000     0.448890000000     0.744750000000     0.0483624  
H228     H      0.713210000000     0.491230000000     0.880230000000     0.0133859  
H229     H      0.841360000000     0.443230000000     0.718630000000     0.0252204  
H230     H      0.723310000000     0.579590000000     0.809440000000     0.0686154  
H231     H      0.765240000000     0.561090000000     0.857370000000     0.0596927  
H232     H      0.704540000000     0.582810000000     0.872930000000     0.0737189  
H233     H      0.642860000000     0.796380000000     0.979610000000     0.0397096  
H234     H      0.825520000000     0.782160000000     0.024850000000     0.0250204  
H235     H      0.709950000000     0.661900000000     0.938750000000     0.0259118  
H236     H      0.764080000000     0.691790000000     0.007780000000     0.0400338  
H237     H      0.802790000000     0.728470000000     0.952520000000     0.0415382  
H238     H      0.695460000000     0.849480000000     0.966720000000     0.047278   
H239     H      0.586310000000     0.726240000000     0.974240000000     0.0335636  
H240     H      0.868610000000     0.786260000000     0.975200000000     0.0333576  
H241     H      0.712360000000     0.696670000000     0.046130000000     0.0475579  
H242     H      0.739410000000     0.845540000000     0.919250000000     0.0512564  
H243     H      0.706460000000     0.623820000000     0.992540000000     0.0323192  
H244     H      0.645370000000     0.759210000000     0.033350000000     0.0474422  
H245     H      0.802090000000     0.780620000000     0.914470000000     0.0498032  
H246     H      0.766320000000     0.906410000000     0.976030000000     0.0146357  
H247     H      0.631050000000     0.726690000000     0.926040000000     0.0278313  
H248     H      0.754620000000     0.831040000000     0.059940000000     0.0667554  
H249     H      0.716590000000     0.884380000000     0.047920000000     0.0585316  
H250     H      0.780010000000     0.892320000000     0.065280000000     0.0676979  
H251     H      0.730720000000     0.187350000000     0.023930000000     0.0392546  
H252     H      0.724370000000     0.360930000000     0.056940000000     0.0252545  
H253     H      0.852880000000     0.233070000000     0.931070000000     0.0254497  
H254     H      0.847150000000     0.296290000000     0.992170000000     0.0387198  
H255     H      0.792130000000     0.348730000000     0.003780000000     0.043087   
H256     H      0.687850000000     0.227630000000     0.974620000000     0.0489536  
H257     H      0.784320000000     0.122930000000     0.990820000000     0.033059   
H258     H      0.722010000000     0.405700000000     0.009110000000     0.0333634  
H259     H      0.852280000000     0.253870000000     0.042130000000     0.0480766  
H260     H      0.690880000000     0.279590000000     0.936740000000     0.0545912  
H261     H      0.903300000000     0.227500000000     0.972950000000     0.0337058  
H262     H      0.787270000000     0.187450000000     0.055130000000     0.0492591  
H263     H      0.755420000000     0.348710000000     0.949010000000     0.0485742  
H264     H      0.620380000000     0.286130000000     0.989180000000     0.0124438  
H265     H      0.776220000000     0.169170000000     0.944310000000     0.0256798  
H266     H      0.690300000000     0.279680000000     0.078340000000     0.0686727  
H267     H      0.645390000000     0.234680000000     0.058840000000     0.0597151  
H268     H      0.625470000000     0.294270000000     0.080180000000     0.073414   
H269     H      0.196720000000     0.643930000000     0.010580000000     0.039575   
H270     H      0.210560000000     0.831740000000     0.048390000000     0.0223853  
H271     H      0.321370000000     0.716780000000     0.952400000000     0.0257941  
H272     H      0.303450000000     0.764930000000     0.030340000000     0.0397846  
H273     H      0.262730000000     0.803170000000     0.977410000000     0.0421072  
H274     H      0.142980000000     0.697770000000     0.008970000000     0.0490255  
H275     H      0.264650000000     0.589700000000     0.986800000000     0.0337898  
H276     H      0.206310000000     0.870680000000     0.995460000000     0.03065    
H277     H      0.305790000000     0.709790000000     0.063960000000     0.0490708  
H278     H      0.143660000000     0.734240000000     0.954860000000     0.0516184  
H279     H      0.368430000000     0.710200000000     0.998270000000     0.0337309  
H280     H      0.243240000000     0.643110000000     0.056520000000     0.0478117  
H281     H      0.209870000000     0.798690000000     0.940500000000     0.0493236  
H282     H      0.085790000000     0.769070000000     0.010320000000     0.0147782  
H283     H      0.256370000000     0.639290000000     0.944320000000     0.0257367  
H284     H      0.164810000000     0.766950000000     0.091490000000     0.0665488  
H285     H      0.110000000000     0.729500000000     0.086980000000     0.0589749  
H286     H      0.104670000000     0.794960000000     0.096350000000     0.0717093  
H287     H      0.343490000000     0.199250000000     0.023430000000     0.0390548  
H288     H      0.157540000000     0.213860000000     0.032320000000     0.0229762  
H289     H      0.279260000000     0.329590000000     0.958450000000     0.0294297  
H290     H      0.220970000000     0.305120000000     0.026130000000     0.0396905  
H291     H      0.191110000000     0.268190000000     0.965370000000     0.0424045  
H292     H      0.296490000000     0.148020000000     0.992990000000     0.0482991  
H293     H      0.400650000000     0.268750000000     0.011730000000     0.0338374  
H294     H      0.123250000000     0.209190000000     0.976350000000     0.0330627  
H295     H      0.269870000000     0.305020000000     0.068220000000     0.0459559  
H296     H      0.259110000000     0.152290000000     0.940490000000     0.0547673  
H297     H      0.280600000000     0.372000000000     0.008940000000     0.0345062  
H298     H      0.335640000000     0.245150000000     0.068710000000     0.0440158  
H299     H      0.198290000000     0.216620000000     0.927090000000     0.0512902  
H300     H      0.225330000000     0.090310000000     0.992330000000     0.0146679  
H301     H      0.361160000000     0.260580000000     0.959730000000     0.0298707  
H302     H      0.223530000000     0.164900000000     0.077790000000     0.0666801  
H303     H      0.264430000000     0.112780000000     0.070760000000     0.0591604  
H304     H      0.199430000000     0.102900000000     0.078870000000     0.0688403  
H305     H      0.680470000000     0.951380000000     0.773320000000     0.0394415  
H306     H      0.855420000000     0.943580000000     0.763990000000     0.0270048  
H307     H      0.728220000000     0.020340000000     0.635450000000     0.0273267  
H308     H      0.788730000000     0.954340000000     0.654060000000     0.0401227  
H309     H      0.833510000000     0.999240000000     0.695850000000     0.0414721  
H310     H      0.715140000000     0.012340000000     0.805220000000     0.0489907  
H311     H      0.614520000000     0.966450000000     0.711620000000     0.0339672  
H312     H      0.893800000000     0.997240000000     0.763170000000     0.0321994  
H313     H      0.741550000000     0.910500000000     0.660500000000     0.0483565  
H314     H      0.761770000000     0.055760000000     0.796220000000     0.0534068  
H315     H      0.720770000000     0.968450000000     0.595450000000     0.0345831  
H316     H      0.682620000000     0.909430000000     0.724410000000     0.047975   
H317     H      0.826140000000     0.049530000000     0.736060000000     0.0479636  
H318     H      0.779950000000     0.012240000000     0.869790000000     0.014796   
H319     H      0.654350000000     0.018930000000     0.716330000000     0.0267814  
H320     H      0.777760000000     0.914430000000     0.811940000000     0.0691017  
H321     H      0.732630000000     0.935750000000     0.855910000000     0.0591599  
H322     H      0.794400000000     0.922150000000     0.875520000000     0.0762329  
H323     H      0.288110000000     0.956130000000     0.830850000000     0.0394066  
H324     H      0.274940000000     0.948490000000     0.649570000000     0.0245505  
H325     H      0.155610000000     0.024220000000     0.770810000000     0.0296847  
H326     H      0.179070000000     0.957120000000     0.711940000000     0.0400372  
H327     H      0.217320000000     0.014650000000     0.678450000000     0.0423825  
H328     H      0.334330000000     0.999370000000     0.788970000000     0.0481332  
H329     H      0.220530000000     0.969780000000     0.890030000000     0.0332786  
H330     H      0.279550000000     0.003540000000     0.613550000000     0.0336652  
H331     H      0.180660000000     0.914160000000     0.760010000000     0.0466088  
H332     H      0.329270000000     0.048070000000     0.747160000000     0.0542852  
H333     H      0.114030000000     0.972980000000     0.773770000000     0.0336857  
H334     H      0.240530000000     0.912830000000     0.823760000000     0.0459027  
H335     H      0.266770000000     0.055640000000     0.685600000000     0.0499827  
H336     H      0.394430000000     0.995840000000     0.720350000000     0.0159661  
H337     H      0.228410000000     0.022290000000     0.850910000000     0.0298907  
H338     H      0.322640000000     0.907650000000     0.720290000000     0.0672775  
H339     H      0.372160000000     0.918860000000     0.763210000000     0.0590696  
H340     H      0.385710000000     0.907270000000     0.699590000000     0.0693142  
H341     H      0.318880000000     0.019450000000     0.218650000000     0.0393332  
H342     H      0.132440000000     0.931550000000     0.217060000000     0.0240711  
H343     H      0.270760000000     0.070290000000     0.352360000000     0.0242726  
H344     H      0.206890000000     0.018340000000     0.329610000000     0.0398298  
H345     H      0.158270000000     0.981800000000     0.280290000000     0.0411871  
H346     H      0.272550000000     0.977070000000     0.171770000000     0.0478658  
H347     H      0.382160000000     0.028140000000     0.281490000000     0.0330245  
H348     H      0.094500000000     0.985020000000     0.214480000000     0.0324737  
H349     H      0.242420000000     0.962500000000     0.334430000000     0.0477691  
H350     H      0.237550000000     0.032770000000     0.165000000000     0.0522284  
H351     H      0.271430000000     0.019680000000     0.394590000000     0.0331573  
H352     H      0.325290000000     0.964430000000     0.255370000000     0.0487767  
H353     H      0.156680000000     0.037950000000     0.245050000000     0.0481466  
H354     H      0.209500000000     0.975880000000     0.106500000000     0.0146775  
H355     H      0.334390000000     0.073610000000     0.283880000000     0.0238388  
H356     H      0.205990000000     0.896200000000     0.186930000000     0.0666122  
H357     H      0.245030000000     0.899420000000     0.133570000000     0.0592692  
H358     H      0.179960000000     0.889510000000     0.126190000000     0.0724976  
H359     H      0.668410000000     0.951160000000     0.240030000000     0.0468993  
H360     H      0.821380000000     0.082890000000     0.192700000000     0.0237529  
H361     H      0.708980000000     0.947590000000     0.341580000000     0.0273177  
H362     H      0.777590000000     0.997250000000     0.318020000000     0.0401769  
H363     H      0.823150000000     0.033230000000     0.264310000000     0.0417379  
H364     H      0.716010000000     0.971290000000     0.159100000000     0.0473044  
H365     H      0.640290000000     0.054870000000     0.276990000000     0.0292429  
H366     H      0.878760000000     0.051420000000     0.196130000000     0.0336134  
H367     H      0.741140000000     0.052970000000     0.313260000000     0.0484856  
H368     H      0.774220000000     0.943150000000     0.165110000000     0.0526132  
H369     H      0.714540000000     0.000110000000     0.380900000000     0.0340975  
H370     H      0.664760000000     0.008850000000     0.206740000000     0.0406578  
H371     H      0.839900000000     0.978160000000     0.231610000000     0.0492747  
H372     H      0.773680000000     0.993120000000     0.092740000000     0.012056   
H373     H      0.601450000000     0.001950000000     0.271240000000     0.0323742  
H374     H      0.742040000000     0.081120000000     0.157340000000     0.0673394  
H375     H      0.707800000000     0.051130000000     0.109240000000     0.058762   
H376     H      0.762730000000     0.085270000000     0.094450000000     0.0705656  
H377     H      0.998990000000     0.153260000000     0.696170000000     0.039932   
H378     H      0.966670000000     0.333040000000     0.711900000000     0.0238841  
H379     H      0.060510000000     0.215750000000     0.826310000000     0.0279449  
H380     H      0.990730000000     0.273360000000     0.805200000000     0.0404861  
H381     H      0.041060000000     0.312890000000     0.763630000000     0.0424604  
H382     H      0.028810000000     0.201730000000     0.646530000000     0.0485295  
H383     H      0.014400000000     0.095140000000     0.763220000000     0.033958   
H384     H      0.015740000000     0.376580000000     0.704640000000     0.0335861  
H385     H      0.949890000000     0.223320000000     0.803190000000     0.0479961  
H386     H      0.072880000000     0.248750000000     0.648710000000     0.0537323  
H387     H      0.010770000000     0.213340000000     0.869590000000     0.0334562  
H388     H      0.952800000000     0.157850000000     0.741410000000     0.0472314  
H389     H      0.077800000000     0.311140000000     0.710840000000     0.0502488  
H390     H      0.013120000000     0.270310000000     0.588470000000     0.0160573  
H391     H      0.063270000000     0.139230000000     0.758590000000     0.0280382  
H392     H      0.931500000000     0.259330000000     0.666400000000     0.0674897  
H393     H      0.943570000000     0.218700000000     0.615220000000     0.0592475  
H394     H      0.923850000000     0.281120000000     0.604320000000     0.0683173  
H395     H      0.002730000000     0.654200000000     0.784840000000     0.0397153  
H396     H      0.033020000000     0.834580000000     0.770860000000     0.0252424  
H397     H      0.946520000000     0.716620000000     0.651250000000     0.0285009  
H398     H      0.016330000000     0.772930000000     0.675290000000     0.0403503  
H399     H      0.963710000000     0.813030000000     0.713380000000     0.0419547  
H400     H      0.967530000000     0.702310000000     0.831430000000     0.0477995  
H401     H      0.990060000000     0.595340000000     0.717290000000     0.0335906  
H402     H      0.982710000000     0.877210000000     0.774160000000     0.0334234  
H403     H      0.056100000000     0.722190000000     0.679360000000     0.0472652  
H404     H      0.923130000000     0.748690000000     0.825480000000     0.0536056  
H405     H      0.998310000000     0.712450000000     0.610590000000     0.0334123  
H406     H      0.050250000000     0.658140000000     0.741060000000     0.0465275  
H407     H      0.922550000000     0.810850000000     0.762820000000     0.0500116  
H408     H      0.977170000000     0.771480000000     0.890380000000     0.0157345  
H409     H      0.940500000000     0.638760000000     0.720710000000     0.0282239  
H410     H      0.065370000000     0.761040000000     0.819840000000     0.0672015  
H411     H      0.049310000000     0.720370000000     0.869890000000     0.0587883  
H412     H      0.067390000000     0.782980000000     0.882320000000     0.0681635  
H413     H      0.957490000000     0.723510000000     0.169170000000     0.0391352  
H414     H      0.052640000000     0.727080000000     0.350070000000     0.0210583  
H415     H      0.909480000000     0.859120000000     0.213530000000     0.0235723  
H416     H      0.958810000000     0.835670000000     0.278580000000     0.0397096  
H417     H      0.997590000000     0.788120000000     0.327500000000     0.0407479  
H418     H      0.001820000000     0.677060000000     0.214230000000     0.0484676  
H419     H      0.951220000000     0.785850000000     0.104620000000     0.032462   
H420     H      0.001850000000     0.722960000000     0.391310000000     0.031102   
H421     H      0.015910000000     0.840610000000     0.245220000000     0.0479001  
H422     H      0.948520000000     0.669560000000     0.252330000000     0.0523507  
H423     H      0.960590000000     0.900850000000     0.213490000000     0.0325551  
H424     H      0.013750000000     0.758310000000     0.161560000000     0.0477993  
H425     H      0.943890000000     0.749380000000     0.331200000000     0.0479373  
H426     H      0.009120000000     0.613070000000     0.277620000000     0.0148942  
H427     H      0.905770000000     0.790200000000     0.152050000000     0.0235004  
H428     H      0.085390000000     0.697020000000     0.276120000000     0.0663791  
H429     H      0.082480000000     0.642560000000     0.238400000000     0.0591383  
H430     H      0.095720000000     0.636840000000     0.302830000000     0.0723474  
H431     H      0.018320000000     0.342250000000     0.197460000000     0.0396791  
H432     H      0.041700000000     0.157060000000     0.209470000000     0.0237042  
H433     H      0.955390000000     0.276600000000     0.327040000000     0.0286828  
H434     H      0.025430000000     0.220370000000     0.304210000000     0.0402758  
H435     H      0.971660000000     0.183960000000     0.263540000000     0.0424901  
H436     H      0.992220000000     0.293750000000     0.145970000000     0.0483949  
H437     H      0.001360000000     0.399000000000     0.264980000000     0.034715   
H438     H      0.988540000000     0.118420000000     0.203750000000     0.0322156  
H439     H      0.065990000000     0.270650000000     0.303650000000     0.0472841  
H440     H      0.942820000000     0.252070000000     0.148880000000     0.0544805  
H441     H      0.005460000000     0.279990000000     0.369850000000     0.0344579  
H442     H      0.063560000000     0.337050000000     0.243640000000     0.0464433  
H443     H      0.933210000000     0.189340000000     0.212120000000     0.0507797  
H444     H      0.998990000000     0.224340000000     0.087610000000     0.0154064  
H445     H      0.952580000000     0.355030000000     0.258420000000     0.0288936  
H446     H      0.082430000000     0.227070000000     0.164370000000     0.0671838  
H447     H      0.074070000000     0.268030000000     0.112740000000     0.05951    
H448     H      0.087010000000     0.203750000000     0.102520000000     0.0687928  
N1       N      0.499370000000     0.346150000000     0.164240000000    -0.184864   
N2       N      0.503870000000     0.167360000000     0.345670000000    -0.173304   
N3       N      0.473640000000     0.667240000000     0.144970000000    -0.184915   
N4       N      0.485190000000     0.845540000000     0.324760000000    -0.173575   
N5       N      0.493620000000     0.823960000000     0.646660000000    -0.184442   
N6       N      0.485770000000     0.648930000000     0.823180000000    -0.173219   
N7       N      0.506500000000     0.147460000000     0.666450000000    -0.184608   
N8       N      0.501470000000     0.326300000000     0.842840000000    -0.173248   
N9       N      0.838740000000     0.329920000000     0.485970000000    -0.184327   
N10      N      0.663330000000     0.151870000000     0.496820000000    -0.17327    
N11      N      0.829340000000     0.652960000000     0.495840000000    -0.1841     
N12      N      0.652730000000     0.828870000000     0.487120000000    -0.17302    
N13      N      0.341540000000     0.160010000000     0.526620000000    -0.185373   
N14      N      0.161390000000     0.338950000000     0.484330000000    -0.174663   
N15      N      0.152990000000     0.662450000000     0.497110000000    -0.184363   
N16      N      0.329750000000     0.838840000000     0.492200000000    -0.173604   
N17      N      0.834780000000     0.504260000000     0.329180000000    -0.184187   
N18      N      0.655700000000     0.512960000000     0.153950000000    -0.172816   
N19      N      0.333010000000     0.501950000000     0.155010000000    -0.184679   
N20      N      0.157120000000     0.512050000000     0.331140000000    -0.174064   
N21      N      0.156410000000     0.487370000000     0.653470000000    -0.183996   
N22      N      0.332020000000     0.479000000000     0.832810000000    -0.172626   
N23      N      0.653080000000     0.507870000000     0.831690000000    -0.185248   
N24      N      0.833580000000     0.479540000000     0.650080000000    -0.174589   
N25      N      0.821180000000     0.849730000000     0.985420000000    -0.184305   
N26      N      0.643050000000     0.670140000000     0.978240000000    -0.173525   
N27      N      0.666280000000     0.348440000000     0.006620000000    -0.185154   
N28      N      0.846910000000     0.171040000000     0.977730000000    -0.173869   
N29      N      0.142690000000     0.824530000000     0.010000000000    -0.185738   
N30      N      0.320620000000     0.646950000000     0.987730000000    -0.173743   
N31      N      0.169170000000     0.146350000000     0.994300000000    -0.184871   
N32      N      0.344230000000     0.324360000000     0.001560000000    -0.17215    
N33      N      0.840370000000     0.993700000000     0.821980000000    -0.184865   
N34      N      0.663850000000     0.978360000000     0.650320000000    -0.173526   
N35      N      0.340780000000     0.988920000000     0.662460000000    -0.18413    
N36      N      0.163600000000     0.981290000000     0.835550000000    -0.173171   
N37      N      0.148280000000     0.977680000000     0.156550000000    -0.184879   
N38      N      0.330630000000     0.021980000000     0.341760000000    -0.173719   
N39      N      0.828100000000     0.025780000000     0.140120000000    -0.186045   
N40      N      0.652940000000     0.000660000000     0.331170000000    -0.174325   
N41      N      0.003840000000     0.326810000000     0.643450000000    -0.184336   
N42      N      0.017550000000     0.150540000000     0.820670000000    -0.173569   
N43      N      0.990650000000     0.827800000000     0.836170000000    -0.183823   
N44      N      0.987400000000     0.650340000000     0.659560000000    -0.173224   
N45      N      0.008060000000     0.664280000000     0.338050000000    -0.185845   
N46      N      0.959150000000     0.846710000000     0.155380000000    -0.174745   
N47      N      0.003190000000     0.167010000000     0.142230000000    -0.184394   
N48      N      0.996620000000     0.342900000000     0.321600000000    -0.172974   
O1       O      0.003220000000     0.140980000000     0.062270000000    -0.378168   
O2       O      0.975100000000     0.863550000000     0.074850000000    -0.380245   
O3       O      0.909900000000     0.017710000000     0.122540000000    -0.378099   
O4       O      0.068760000000     0.991850000000     0.131840000000    -0.379304   
O5       O      0.130120000000     0.985250000000     0.074980000000    -0.380113   
O6       O      0.852800000000     0.013080000000     0.061170000000    -0.382711   
O7       O      0.976550000000     0.925680000000     0.131450000000    -0.38023    
O8       O      0.997430000000     0.084690000000     0.124330000000    -0.381097   
O9       O      0.038650000000     0.946720000000     0.043010000000    -0.50704    
O10      O      0.947930000000     0.053870000000     0.033630000000    -0.507719   
O11      O      0.939440000000     0.954690000000     0.038460000000    -0.653268   
O12      O      0.047170000000     0.046170000000     0.038700000000    -0.649795   
O13      O      0.988620000000     0.854170000000     0.915920000000    -0.381262   
O14      O      0.011220000000     0.132820000000     0.902500000000    -0.378968   
O15      O      0.849880000000     0.929080000000     0.985370000000    -0.38131    
O16      O      0.127690000000     0.906920000000     0.999830000000    -0.38119    
O17      O      0.140900000000     0.066770000000     0.994250000000    -0.38145    
O18      O      0.863120000000     0.088500000000     0.980730000000    -0.381779   
O19      O      0.921210000000     0.993770000000     0.846210000000    -0.379423   
O20      O      0.081450000000     0.985900000000     0.853580000000    -0.3789     
O21      O      0.859960000000     0.001780000000     0.903030000000    -0.383185   
O22      O      0.138070000000     0.984670000000     0.915530000000    -0.379736   
O23      O      0.904130000000     0.864870000000     0.988310000000    -0.377775   
O24      O      0.926690000000     0.143580000000     0.979640000000    -0.379154   
O25      O      0.086650000000     0.130700000000     0.986990000000    -0.380079   
O26      O      0.063510000000     0.852690000000     0.003650000000    -0.381036   
O27      O      0.994910000000     0.910330000000     0.853770000000    -0.378097   
O28      O      0.008850000000     0.070580000000     0.846090000000    -0.378359   
O29      O      0.051150000000     0.041040000000     0.939150000000    -0.507291   
O30      O      0.944030000000     0.949440000000     0.939120000000    -0.509749   
O31      O      0.951870000000     0.049190000000     0.934100000000    -0.65129    
O32      O      0.043270000000     0.941340000000     0.943710000000    -0.650512   
O33      O      0.998000000000     0.360270000000     0.403920000000    -0.378411   
O34      O      0.998290000000     0.639940000000     0.418070000000    -0.379784   
O35      O      0.916110000000     0.502870000000     0.351570000000    -0.381109   
O36      O      0.076150000000     0.505830000000     0.352890000000    -0.37896    
O37      O      0.135580000000     0.505800000000     0.412170000000    -0.377883   
O38      O      0.856320000000     0.497270000000     0.410200000000    -0.379838   
O39      O      0.000370000000     0.582630000000     0.356780000000    -0.381631   
O40      O      0.996700000000     0.422930000000     0.348030000000    -0.380773   
O41      O      0.044140000000     0.549220000000     0.444790000000    -0.507606   
O42      O      0.947080000000     0.446960000000     0.438270000000    -0.509889   
O43      O      0.944770000000     0.547530000000     0.443350000000    -0.651959   
O44      O      0.047640000000     0.450000000000     0.439180000000    -0.650864   
O45      O      0.990670000000     0.632140000000     0.577670000000    -0.380212   
O46      O      0.001020000000     0.352830000000     0.563650000000    -0.379897   
O47      O      0.854100000000     0.572370000000     0.494450000000    -0.380611   
O48      O      0.133520000000     0.580260000000     0.495190000000    -0.379422   
O49      O      0.137920000000     0.419810000000     0.489190000000    -0.380483   
O50      O      0.858470000000     0.412030000000     0.486280000000    -0.379124   
O51      O      0.914910000000     0.486870000000     0.629550000000    -0.379475   
O52      O      0.075180000000     0.489980000000     0.630910000000    -0.378721   
O53      O      0.856100000000     0.486480000000     0.569620000000    -0.380526   
O54      O      0.135130000000     0.493980000000     0.572300000000    -0.37937    
O55      O      0.911600000000     0.633820000000     0.496360000000    -0.380205   
O56      O      0.919520000000     0.354140000000     0.484880000000    -0.380258   
O57      O      0.079780000000     0.359180000000     0.484000000000    -0.380469   
O58      O      0.072330000000     0.637970000000     0.497680000000    -0.37866    
O59      O      0.991100000000     0.569910000000     0.634100000000    -0.378879   
O60      O      0.999590000000     0.409290000000     0.625820000000    -0.378971   
O61      O      0.046460000000     0.445410000000     0.538410000000    -0.50643    
O62      O      0.944190000000     0.542380000000     0.542730000000    -0.506738   
O63      O      0.947330000000     0.442670000000     0.537800000000    -0.651607   
O64      O      0.044410000000     0.545420000000     0.543880000000    -0.649265   
O65      O      0.572210000000     0.004880000000     0.354940000000    -0.376508   
O66      O      0.581620000000     0.982760000000     0.632120000000    -0.379685   
O67      O      0.638640000000     0.071140000000     0.494260000000    -0.378286   
O68      O      0.633070000000     0.910830000000     0.489230000000    -0.377913   
O69      O      0.571890000000     0.853120000000     0.487090000000    -0.378475   
O70      O      0.581470000000     0.132480000000     0.501330000000    -0.379361   
O71      O      0.638670000000     0.985110000000     0.570640000000    -0.38112    
O72      O      0.632770000000     0.993720000000     0.412050000000    -0.382603   
O73      O      0.546070000000     0.940760000000     0.540940000000    -0.507824   
O74      O      0.546360000000     0.047000000000     0.448280000000    -0.50915    
O75      O      0.549980000000     0.040910000000     0.547480000000    -0.65248    
O76      O      0.542880000000     0.947320000000     0.441550000000    -0.652638   
O77      O      0.421260000000     0.989500000000     0.637730000000    -0.380705   
O78      O      0.411850000000     0.010620000000     0.360610000000    -0.379814   
O79      O      0.503160000000     0.129980000000     0.584510000000    -0.381663   
O80      O      0.493550000000     0.851090000000     0.567110000000    -0.379111   
O81      O      0.488000000000     0.861600000000     0.407200000000    -0.379246   
O82      O      0.501160000000     0.140430000000     0.425270000000    -0.379491   
O83      O      0.360920000000     0.079180000000     0.513460000000    -0.379194   
O84      O      0.354200000000     0.919640000000     0.495060000000    -0.379527   
O85      O      0.421470000000     0.137560000000     0.511850000000    -0.380806   
O86      O      0.411670000000     0.858390000000     0.490070000000    -0.380288   
O87      O      0.503710000000     0.067100000000     0.640230000000    -0.378741   
O88      O      0.497240000000     0.084960000000     0.362380000000    -0.377406   
O89      O      0.488950000000     0.925140000000     0.352190000000    -0.380921   
O90      O      0.498100000000     0.906580000000     0.630010000000    -0.380011   
O91      O      0.359770000000     0.993930000000     0.580720000000    -0.377741   
O92      O      0.354080000000     0.009040000000     0.421520000000    -0.379749   
O93      O      0.443190000000     0.950490000000     0.444800000000    -0.50787    
O94      O      0.450380000000     0.043370000000     0.550330000000    -0.506794   
O95      O      0.446450000000     0.050780000000     0.451540000000    -0.65162    
O96      O      0.446830000000     0.944170000000     0.544320000000    -0.650879   
O97      O      0.359940000000     0.407270000000     0.998270000000    -0.380774   
O98      O      0.638660000000     0.427910000000     0.000300000000    -0.378556   
O99      O      0.501450000000     0.353400000000     0.922320000000    -0.378757   
O100     O      0.502520000000     0.362970000000     0.081880000000    -0.379964   
O101     O      0.496980000000     0.425970000000     0.137180000000    -0.381182   
O102     O      0.498670000000     0.409050000000     0.859490000000    -0.379932   
O103     O      0.583620000000     0.364280000000     0.002360000000    -0.380487   
O104     O      0.423680000000     0.352410000000     0.001230000000    -0.378083   
O105     O      0.547080000000     0.454310000000     0.045970000000    -0.508469   
O106     O      0.447140000000     0.441050000000     0.947190000000    -0.508485   
O107     O      0.547100000000     0.448330000000     0.946610000000    -0.649265   
O108     O      0.447260000000     0.447370000000     0.046410000000    -0.649687   
O109     O      0.627160000000     0.587700000000     0.987070000000    -0.379152   
O110     O      0.348350000000     0.567400000000     0.989950000000    -0.379381   
O111     O      0.572700000000     0.499480000000     0.854810000000    -0.380085   
O112     O      0.574180000000     0.508990000000     0.132490000000    -0.378897   
O113     O      0.414070000000     0.502720000000     0.132520000000    -0.380481   
O114     O      0.413280000000     0.484050000000     0.854710000000    -0.378763   
O115     O      0.484690000000     0.632100000000     0.905510000000    -0.37842    
O116     O      0.480040000000     0.641240000000     0.065260000000    -0.379093   
O117     O      0.488840000000     0.569090000000     0.850070000000    -0.377435   
O118     O      0.485890000000     0.585560000000     0.127810000000    -0.381153   
O119     O      0.632830000000     0.504450000000     0.913200000000    -0.380346   
O120     O      0.353850000000     0.483190000000     0.913980000000    -0.377632   
O121     O      0.354390000000     0.495260000000     0.073950000000    -0.378476   
O122     O      0.633330000000     0.510880000000     0.072970000000    -0.37773    
O123     O      0.563500000000     0.642570000000     0.982870000000    -0.379099   
O124     O      0.403350000000     0.631040000000     0.987520000000    -0.378598   
O125     O      0.440590000000     0.546220000000     0.040110000000    -0.506843   
O126     O      0.539280000000     0.547500000000     0.941290000000    -0.508272   
O127     O      0.439880000000     0.541020000000     0.941150000000    -0.650977   
O128     O      0.540230000000     0.554530000000     0.040420000000    -0.649702   
Zr1      Zr     0.991180000000     0.002870000000     0.087680000000     1.42608    
Zr2      Zr     0.987180000000     0.898890000000     0.993500000000     1.42449    
Zr3      Zr     0.003510000000     0.096820000000     0.984180000000     1.42338    
Zr4      Zr     0.897030000000     0.005560000000     0.984030000000     1.43199    
Zr5      Zr     0.094030000000     0.989950000000     0.993380000000     1.42396    
Zr6      Zr     0.999710000000     0.992640000000     0.889930000000     1.42178    
Zr7      Zr     0.996080000000     0.500780000000     0.392590000000     1.42753    
Zr8      Zr     0.993130000000     0.595610000000     0.495970000000     1.42298    
Zr9      Zr     0.998470000000     0.397000000000     0.485830000000     1.42508    
Zr10     Zr     0.896670000000     0.493430000000     0.490170000000     1.42456    
Zr11     Zr     0.095240000000     0.498890000000     0.492040000000     1.42495    
Zr12     Zr     0.995320000000     0.491630000000     0.589900000000     1.42312    
Zr13     Zr     0.595300000000     0.992230000000     0.492920000000     1.42963    
Zr14     Zr     0.500060000000     0.989290000000     0.594980000000     1.42614    
Zr15     Zr     0.493190000000     0.002460000000     0.397630000000     1.42541    
Zr16     Zr     0.499970000000     0.094790000000     0.502490000000     1.4277     
Zr17     Zr     0.493020000000     0.896370000000     0.489740000000     1.42443    
Zr18     Zr     0.397410000000     0.998520000000     0.499530000000     1.4243     
Zr19     Zr     0.500650000000     0.398650000000     0.999580000000     1.42129    
Zr20     Zr     0.592660000000     0.504800000000     0.993360000000     1.42158    
Zr21     Zr     0.394340000000     0.490360000000     0.993830000000     1.42392    
Zr22     Zr     0.493180000000     0.491550000000     0.895080000000     1.42639    
Zr23     Zr     0.493970000000     0.503550000000     0.092190000000     1.42696    
Zr24     Zr     0.486370000000     0.596610000000     0.987800000000     1.4248     


