data_structure

_audit_creation_method RASPA-1.0
_audit_creation_date 2023-5-25
_audit_author_name 'Poobodin Mano'

_cell_length_a    26.593
_cell_length_b    26.6638
_cell_length_c    26.6525
_cell_angle_alpha 90
_cell_angle_beta  90
_cell_angle_gamma 90
_cell_volume      18898.5

_symmetry_cell_setting          triclinic
_symmetry_space_group_name_Hall 'P 1'
_symmetry_space_group_name_H-M  'P 1'
_symmetry_Int_Tables_number     1

_symmetry_equiv_pos_as_xyz 'x,y,z'

loop_
_atom_site_label
_atom_site_type_symbol
_atom_site_fract_x
_atom_site_fract_y
_atom_site_fract_z
_atom_site_charge
C1       C      0.013080000000     0.116260000000     0.140200000000     0.395812   
C2       C      0.009760000000     0.861460000000     0.121700000000     0.395802   
C3       C      0.886970000000     0.996020000000     0.143170000000     0.392924   
C4       C      0.142620000000     0.987700000000     0.117520000000     0.395117   
C5       C      0.986990000000     0.880550000000     0.866660000000     0.393494   
C6       C      0.984760000000     0.135360000000     0.886800000000     0.396668   
C7       C      0.873940000000     0.870480000000     0.004480000000     0.395145   
C8       C      0.129960000000     0.872160000000     0.981070000000     0.394776   
C9       C      0.129380000000     0.127950000000     0.993800000000     0.396774   
C10      C      0.875030000000     0.126020000000     0.030670000000     0.397004   
C11      C      0.862470000000     0.004490000000     0.888070000000     0.396077   
C12      C      0.117250000000     0.004370000000     0.863720000000     0.393528   
C13      C      0.987700000000     0.363120000000     0.385190000000     0.39325    
C14      C      0.006160000000     0.617400000000     0.366540000000     0.396299   
C15      C      0.864880000000     0.499070000000     0.384890000000     0.398807   
C16      C      0.120660000000     0.486670000000     0.367640000000     0.390548   
C17      C      0.015620000000     0.636120000000     0.622750000000     0.391699   
C18      C      0.000060000000     0.379570000000     0.639770000000     0.397753   
C19      C      0.887940000000     0.640170000000     0.508460000000     0.400179   
C20      C      0.141930000000     0.615230000000     0.489120000000     0.393199   
C21      C      0.117690000000     0.361330000000     0.505510000000     0.39637    
C22      C      0.862740000000     0.385880000000     0.521460000000     0.395111   
C23      C      0.882640000000     0.524590000000     0.638960000000     0.395302   
C24      C      0.137850000000     0.493770000000     0.623020000000     0.396401   
C25      C      0.640840000000     0.024800000000     0.386720000000     0.395195   
C26      C      0.616910000000     0.015080000000     0.641130000000     0.393378   
C27      C      0.615340000000     0.141750000000     0.514910000000     0.392925   
C28      C      0.643290000000     0.887840000000     0.507580000000     0.39453    
C29      C      0.363620000000     0.980940000000     0.617410000000     0.395486   
C30      C      0.387030000000     0.996780000000     0.362310000000     0.395455   
C31      C      0.473510000000     0.118430000000     0.637200000000     0.39317    
C32      C      0.510320000000     0.864150000000     0.620520000000     0.393534   
C33      C      0.520590000000     0.882610000000     0.365620000000     0.398121   
C34      C      0.500610000000     0.137340000000     0.383460000000     0.395953   
C35      C      0.360750000000     0.113740000000     0.488660000000     0.393023   
C36      C      0.389340000000     0.860110000000     0.482520000000     0.393948   
C37      C      0.373710000000     0.373190000000     0.002410000000     0.394496   
C38      C      0.629240000000     0.371650000000     0.024030000000     0.394491   
C39      C      0.502910000000     0.361990000000     0.882820000000     0.394459   
C40      C      0.509710000000     0.382790000000     0.138340000000     0.399559   
C41      C      0.632080000000     0.626690000000     0.993610000000     0.399226   
C42      C      0.376220000000     0.629070000000     0.987660000000     0.392744   
C43      C      0.637700000000     0.498520000000     0.880240000000     0.394906   
C44      C      0.623630000000     0.508400000000     0.136500000000     0.392606   
C45      C      0.366820000000     0.510340000000     0.122500000000     0.392578   
C46      C      0.381820000000     0.494440000000     0.867370000000     0.397882   
C47      C      0.516680000000     0.616560000000     0.865160000000     0.395103   
C48      C      0.500670000000     0.636690000000     0.119830000000     0.392617   
C49      C      0.513780000000     0.358740000000     0.228760000000     0.0369557  
C50      C      0.500610000000     0.161130000000     0.294000000000     0.00999318 
C51      C      0.510810000000     0.228030000000     0.362170000000    -0.00832913 
C52      C      0.547940000000     0.180310000000     0.268230000000    -0.0959579  
C53      C      0.492720000000     0.311350000000     0.254050000000    -0.175259   
C54      C      0.553880000000     0.250490000000     0.330630000000    -0.0865468  
C55      C      0.525770000000     0.266600000000     0.241420000000     0.0540878  
C56      C      0.547840000000     0.236310000000     0.276100000000     0.00770754 
C57      C      0.552470000000     0.304460000000     0.161490000000     0.0180309  
C58      C      0.531890000000     0.257120000000     0.185880000000    -0.116852   
C59      C      0.519330000000     0.794810000000     0.333350000000     0.0390143  
C60      C      0.495150000000     0.728300000000     0.133880000000     0.00840058 
C61      C      0.515350000000     0.667740000000     0.206590000000    -0.00592015 
C62      C      0.533300000000     0.765420000000     0.155480000000    -0.0973336  
C63      C      0.485730000000     0.770710000000     0.293120000000    -0.178559   
C64      C      0.552020000000     0.707480000000     0.226440000000    -0.0897458  
C65      C      0.503960000000     0.787560000000     0.242080000000     0.0588324  
C66      C      0.533410000000     0.758750000000     0.211610000000     0.0138952  
C67      C      0.531940000000     0.869150000000     0.274460000000     0.0136661  
C68      C      0.499070000000     0.843420000000     0.235010000000    -0.115548   
C69      C      0.512000000000     0.831370000000     0.707970000000     0.038069   
C70      C      0.520030000000     0.629600000000     0.773530000000     0.00884292 
C71      C      0.530480000000     0.703790000000     0.835250000000    -0.00685471 
C72      C      0.555200000000     0.656720000000     0.737090000000    -0.0959261  
C73      C      0.487500000000     0.785630000000     0.733060000000    -0.178442   
C74      C      0.564020000000     0.728680000000     0.795560000000    -0.0877646  
C75      C      0.514050000000     0.738560000000     0.715580000000     0.056671   
C76      C      0.547420000000     0.712160000000     0.744200000000     0.0097684  
C77      C      0.533800000000     0.775510000000     0.633400000000     0.0159473  
C78      C      0.509310000000     0.730790000000     0.659770000000    -0.116866   
C79      C      0.495500000000     0.330600000000     0.795360000000     0.0392425  
C80      C      0.471350000000     0.130330000000     0.728750000000     0.0103052  
C81      C      0.459660000000     0.205490000000     0.668030000000    -0.00621543 
C82      C      0.440890000000     0.159260000000     0.767910000000    -0.0991126  
C83      C      0.515210000000     0.284970000000     0.766220000000    -0.179826   
C84      C      0.430760000000     0.231520000000     0.710650000000    -0.0894242  
C85      C      0.489070000000     0.238420000000     0.785400000000     0.0588462  
C86      C      0.451380000000     0.214120000000     0.760270000000     0.0145849  
C87      C      0.482850000000     0.272690000000     0.871040000000     0.0162572  
C88      C      0.501470000000     0.228350000000     0.839630000000    -0.117807   
C89      C      0.702600000000     0.174810000000     0.516430000000     0.0394323  
C90      C      0.770580000000     0.375150000000     0.521040000000     0.0104667  
C91      C      0.830180000000     0.299570000000     0.534540000000    -0.00634648 
C92      C      0.731380000000     0.348610000000     0.553650000000    -0.0985051  
C93      C      0.728950000000     0.217990000000     0.489040000000    -0.179767   
C94      C      0.788310000000     0.275930000000     0.566300000000    -0.0887689  
C95      C      0.711190000000     0.266740000000     0.511760000000     0.0571576  
C96      C      0.738100000000     0.293060000000     0.546590000000     0.0133743  
C97      C      0.626710000000     0.232660000000     0.528580000000     0.0107237  
C98      C      0.655830000000     0.275170000000     0.503010000000    -0.113572   
C99      C      0.676860000000     0.801020000000     0.507050000000     0.0404397  
C100     C      0.877360000000     0.732230000000     0.507450000000     0.00853426 
C101     C      0.801580000000     0.673150000000     0.521360000000    -0.00711601 
C102     C      0.852240000000     0.770610000000     0.542030000000    -0.0948904  
C103     C      0.720930000000     0.776420000000     0.479470000000    -0.18173    
C104     C      0.778750000000     0.714200000000     0.554590000000    -0.0861663  
C105     C      0.769360000000     0.793460000000     0.503730000000     0.0597619  
C106     C      0.796260000000     0.764730000000     0.536480000000     0.00815564 
C107     C      0.733660000000     0.875930000000     0.525790000000     0.0166099  
C108     C      0.777250000000     0.849310000000     0.499210000000    -0.118462   
C109     C      0.269850000000     0.136980000000     0.485940000000     0.0402066  
C110     C      0.206960000000     0.335850000000     0.504250000000     0.00953647 
C111     C      0.137450000000     0.270160000000     0.495440000000    -0.00771731 
C112     C      0.231150000000     0.316950000000     0.456010000000    -0.0976076  
C113     C      0.245290000000     0.184590000000     0.507670000000    -0.177452   
C114     C      0.167010000000     0.248010000000     0.450900000000    -0.0877318  
C115     C      0.257310000000     0.229490000000     0.474510000000     0.0546087  
C116     C      0.222130000000     0.261110000000     0.455180000000     0.0104362  
C117     C      0.336260000000     0.190890000000     0.445140000000     0.0165684  
C118     C      0.312840000000     0.238480000000     0.466300000000    -0.115101   
C119     C      0.302580000000     0.826260000000     0.479240000000     0.0373259  
C120     C      0.233090000000     0.626460000000     0.473940000000     0.00707573 
C121     C      0.176270000000     0.701750000000     0.495810000000    -0.00747594 
C122     C      0.275450000000     0.650420000000     0.504660000000    -0.0943126  
C123     C      0.276070000000     0.784980000000     0.449200000000    -0.176928   
C124     C      0.220490000000     0.723130000000     0.525840000000    -0.0866353  
C125     C      0.294660000000     0.734900000000     0.467900000000     0.0614621  
C126     C      0.269090000000     0.706460000000     0.502000000000     0.0081113  
C127     C      0.379170000000     0.768250000000     0.485980000000     0.0175214  
C128     C      0.349900000000     0.727600000000     0.457640000000    -0.119795   
C129     C      0.711120000000     0.504500000000     0.169260000000     0.0362469  
C130     C      0.774030000000     0.511260000000     0.370290000000     0.00628923 
C131     C      0.833320000000     0.483070000000     0.298610000000    -0.00845311 
C132     C      0.732140000000     0.480490000000     0.345920000000    -0.0942596  
C133     C      0.740580000000     0.532910000000     0.209920000000    -0.176434   
C134     C      0.788400000000     0.454600000000     0.276430000000    -0.0855422  
C135     C      0.719850000000     0.518090000000     0.260580000000     0.0616145  
C136     C      0.740800000000     0.481860000000     0.290180000000     0.00934206 
C137     C      0.634750000000     0.506490000000     0.228140000000     0.0158977  
C138     C      0.666210000000     0.534790000000     0.266820000000    -0.118724   
C139     C      0.208600000000     0.487790000000     0.335930000000     0.0372032  
C140     C      0.275050000000     0.506860000000     0.135550000000     0.00978148 
C141     C      0.335920000000     0.517810000000     0.210510000000    -0.00813008 
C142     C      0.235960000000     0.537500000000     0.164410000000    -0.0988322  
C143     C      0.236740000000     0.464800000000     0.291070000000    -0.176351   
C144     C      0.293680000000     0.547110000000     0.236740000000    -0.0884603  
C145     C      0.218240000000     0.489690000000     0.243640000000     0.0575288  
C146     C      0.243650000000     0.527100000000     0.219320000000     0.0146186  
C147     C      0.133010000000     0.500660000000     0.277330000000     0.0147658  
C148     C      0.163600000000     0.478410000000     0.234150000000    -0.116514   
C149     C      0.169530000000     0.495280000000     0.710540000000     0.038295   
C150     C      0.367260000000     0.480610000000     0.776960000000     0.0093266  
C151     C      0.295250000000     0.509310000000     0.835530000000    -0.00646938 
C152     C      0.345330000000     0.513820000000     0.735790000000    -0.0968019  
C153     C      0.208330000000     0.464010000000     0.739410000000    -0.177202   
C154     C      0.274630000000     0.539470000000     0.790970000000    -0.0884711  
C155     C      0.259830000000     0.478160000000     0.720390000000     0.0603474  
C156     C      0.289280000000     0.513540000000     0.742890000000     0.00992115 
C157     C      0.229680000000     0.493820000000     0.635170000000     0.016837   
C158     C      0.266920000000     0.463300000000     0.666370000000    -0.11898    
C159     C      0.727820000000     0.503740000000     0.854230000000     0.0381664  
C160     C      0.793400000000     0.539150000000     0.657570000000     0.00947366 
C161     C      0.859540000000     0.534670000000     0.729410000000    -0.00723948 
C162     C      0.762250000000     0.573580000000     0.691020000000    -0.0962593  
C163     C      0.756940000000     0.485470000000     0.807620000000    -0.178099   
C164     C      0.822720000000     0.566690000000     0.760550000000    -0.0872731  
C165     C      0.741440000000     0.517210000000     0.763220000000     0.0588073  
C166     C      0.769850000000     0.555390000000     0.743710000000     0.0089737  
C167     C      0.656040000000     0.528280000000     0.795100000000     0.0168448  
C168     C      0.686780000000     0.509760000000     0.750550000000    -0.118356   
C169     C      0.846270000000     0.781300000000     0.005610000000     0.0387994  
C170     C      0.648670000000     0.717190000000     0.986540000000     0.00982244 
C171     C      0.721770000000     0.652450000000     0.984980000000    -0.0066838  
C172     C      0.679660000000     0.750100000000     0.951490000000    -0.0982544  
C173     C      0.802290000000     0.753700000000     0.031050000000    -0.178494   
C174     C      0.750550000000     0.690420000000     0.952340000000    -0.0885282  
C175     C      0.754570000000     0.769250000000     0.004660000000     0.0602607  
C176     C      0.733490000000     0.742450000000     0.966300000000     0.013578   
C177     C      0.784870000000     0.853520000000     0.987630000000     0.0135396  
C178     C      0.743220000000     0.823810000000     0.013240000000    -0.115764   
C179     C      0.657300000000     0.282580000000     0.030580000000     0.0401455  
C180     C      0.858940000000     0.215970000000     0.044660000000     0.0106315  
C181     C      0.786080000000     0.151660000000     0.045490000000    -0.00697043 
C182     C      0.830200000000     0.246840000000     0.083500000000    -0.0984034  
C183     C      0.704980000000     0.257420000000     0.009780000000    -0.17978    
C184     C      0.758910000000     0.186910000000     0.082260000000    -0.0875711  
C185     C      0.749750000000     0.272280000000     0.041770000000     0.0573212  
C186     C      0.775110000000     0.240150000000     0.072670000000     0.0111913  
C187     C      0.711740000000     0.353970000000     0.062340000000     0.0171475  
C188     C      0.758860000000     0.328210000000     0.042040000000    -0.118082   
C189     C      0.286950000000     0.657810000000     0.986570000000     0.0381448  
C190     C      0.221000000000     0.856820000000     0.973590000000     0.00923723 
C191     C      0.157230000000     0.783470000000     0.968540000000    -0.00980509 
C192     C      0.254830000000     0.827830000000     0.937570000000    -0.0975019  
C193     C      0.259660000000     0.702110000000     0.011650000000    -0.179346   
C194     C      0.195610000000     0.756540000000     0.934800000000    -0.0874498  
C195     C      0.275630000000     0.749800000000     0.985510000000     0.059719   
C196     C      0.247690000000     0.773240000000     0.949360000000     0.0128967  
C197     C      0.359910000000     0.717840000000     0.968070000000     0.0123181  
C198     C      0.330700000000     0.760200000000     0.993160000000    -0.115569   
C199     C      0.344940000000     0.284110000000     0.002140000000     0.0379982  
C200     C      0.145000000000     0.218970000000     0.992010000000     0.0116316  
C201     C      0.217980000000     0.155690000000     0.979800000000    -0.008892   
C202     C      0.172430000000     0.254620000000     0.956590000000    -0.10146    
C203     C      0.300850000000     0.255570000000     0.026490000000    -0.177839   
C204     C      0.243800000000     0.196030000000     0.947550000000    -0.0892692  
C205     C      0.252360000000     0.272880000000     0.002510000000     0.0579696  
C206     C      0.227610000000     0.247010000000     0.965720000000     0.0180908  
C207     C      0.284030000000     0.357110000000     0.986910000000     0.0134006  
C208     C      0.242540000000     0.327430000000     0.012830000000    -0.115202   
C209     C      0.639810000000     0.014360000000     0.732000000000     0.0404272  
C210     C      0.838450000000     0.010360000000     0.798690000000     0.010237   
C211     C      0.770800000000     0.011800000000     0.866890000000    -0.00798468 
C212     C      0.816190000000     0.057770000000     0.775820000000    -0.0971803  
C213     C      0.688730000000     0.995950000000     0.756800000000    -0.178045   
C214     C      0.745730000000     0.055370000000     0.838250000000    -0.0881859  
C215     C      0.730960000000     0.033090000000     0.747040000000     0.0538866  
C216     C      0.760190000000     0.053850000000     0.783460000000     0.0106866  
C217     C      0.691650000000     0.061930000000     0.668480000000     0.0159878  
C218     C      0.740380000000     0.043640000000     0.692160000000    -0.114652   
C219     C      0.330050000000     0.979060000000     0.704650000000     0.0392447  
C220     C      0.130470000000     0.011950000000     0.771900000000     0.00832702 
C221     C      0.202880000000     0.986710000000     0.830960000000    -0.00667676 
C222     C      0.149990000000     0.974150000000     0.733180000000    -0.0960749  
C223     C      0.289950000000     0.013440000000     0.727570000000    -0.17865    
C224     C      0.220320000000     0.949850000000     0.790500000000    -0.0883482  
C225     C      0.238580000000     0.996160000000     0.710120000000     0.0581456  
C226     C      0.206130000000     0.969860000000     0.739640000000     0.0104859  
C227     C      0.272610000000     0.964590000000     0.630090000000     0.0165576  
C228     C      0.232390000000     0.998260000000     0.653830000000    -0.117935   
C229     C      0.175720000000     0.982450000000     0.204350000000     0.0356136  
C230     C      0.375810000000     0.988460000000     0.270700000000     0.00906102 
C231     C      0.299840000000     0.002560000000     0.329640000000    -0.00551339 
C232     C      0.348880000000     0.019490000000     0.230610000000    -0.0978592  
C233     C      0.218530000000     0.953610000000     0.230020000000    -0.175054   
C234     C      0.275600000000     0.032620000000     0.287010000000    -0.0898641  
C235     C      0.267770000000     0.975280000000     0.212090000000     0.0583877  
C236     C      0.293290000000     0.011700000000     0.237570000000     0.0154358  
C237     C      0.234260000000     0.995100000000     0.128940000000     0.0122023  
C238     C      0.275480000000     0.966440000000     0.156860000000    -0.114983   
C239     C      0.800160000000     0.002500000000     0.176220000000     0.0421246  
C240     C      0.732830000000     0.025650000000     0.376080000000     0.0102419  
C241     C      0.673030000000     0.036520000000     0.300000000000    -0.00647616 
C242     C      0.772770000000     0.055310000000     0.347250000000    -0.0973983  
C243     C      0.772070000000     0.981280000000     0.221670000000    -0.183016   
C244     C      0.715970000000     0.065160000000     0.274250000000    -0.0875578  
C245     C      0.791130000000     0.007360000000     0.268210000000     0.060575   
C246     C      0.765550000000     0.044750000000     0.292330000000     0.0104348  
C247     C      0.876910000000     0.014600000000     0.233120000000     0.01748    
C248     C      0.845830000000     0.996000000000     0.277890000000    -0.119902   
C249     C      0.990740000000     0.225080000000     0.860890000000     0.0411758  
C250     C      0.989390000000     0.289890000000     0.660730000000     0.00732886 
C251     C      0.998690000000     0.355230000000     0.730700000000    -0.00678185 
C252     C      0.944360000000     0.267530000000     0.688110000000    -0.0951989  
C253     C      0.014990000000     0.245100000000     0.812430000000    -0.178631   
C254     C      0.956340000000     0.327650000000     0.758920000000    -0.0880957  
C255     C      0.979500000000     0.236060000000     0.768730000000     0.0583272  
C256     C      0.955200000000     0.273200000000     0.743250000000     0.0106103  
C257     C      0.942850000000     0.161600000000     0.808780000000     0.017397   
C258     C      0.967060000000     0.181260000000     0.760820000000    -0.116267   
C259     C      0.010400000000     0.668190000000     0.710010000000     0.0375188  
C260     C      0.992750000000     0.868480000000     0.775250000000     0.0104413  
C261     C      0.974600000000     0.793680000000     0.834820000000    -0.0056253  
C262     C      0.963710000000     0.840830000000     0.734190000000    -0.0974853  
C263     C      0.032600000000     0.712280000000     0.739770000000    -0.178747   
C264     C      0.947590000000     0.768720000000     0.790390000000    -0.0884433  
C265     C      0.010450000000     0.760360000000     0.719670000000     0.0566734  
C266     C      0.971840000000     0.785650000000     0.742230000000     0.0108019  
C267     C      0.005030000000     0.727030000000     0.633810000000     0.015301   
C268     C      0.026070000000     0.769560000000     0.666150000000    -0.117125   
C269     C      0.012870000000     0.704560000000     0.334220000000     0.0350775  
C270     C      0.013410000000     0.769800000000     0.135120000000     0.0058811  
C271     C      0.002350000000     0.830850000000     0.209560000000    -0.00749758 
C272     C      0.977920000000     0.733220000000     0.161380000000    -0.0966015  
C273     C      0.043270000000     0.728530000000     0.291560000000    -0.174522   
C274     C      0.968710000000     0.790950000000     0.233940000000    -0.0893932  
C275     C      0.020390000000     0.712050000000     0.242400000000     0.0593836  
C276     C      0.985710000000     0.739820000000     0.216850000000     0.0165648  
C277     C      0.995240000000     0.630430000000     0.275620000000     0.0140578  
C278     C      0.025670000000     0.656410000000     0.234540000000    -0.115588   
C279     C      0.007120000000     0.203550000000     0.172710000000     0.0387384  
C280     C      0.983490000000     0.271150000000     0.371930000000     0.00514755 
C281     C      0.998580000000     0.331280000000     0.297960000000    -0.00639817 
C282     C      0.023300000000     0.235720000000     0.350400000000    -0.0938591  
C283     C      0.973540000000     0.224580000000     0.214470000000    -0.179002   
C284     C      0.037190000000     0.293550000000     0.277940000000    -0.0872713  
C285     C      0.995540000000     0.209590000000     0.264620000000     0.0586726  
C286     C      0.022550000000     0.241420000000     0.294180000000     0.00862617 
C287     C      0.030320000000     0.131120000000     0.230360000000     0.0146235  
C288     C      0.997330000000     0.153450000000     0.271860000000    -0.115064   
H1       H      0.936390000000     0.922040000000     0.076000000000     0.207813   
H2       H      0.081240000000     0.065800000000     0.073120000000     0.212415   
H3       H      0.922940000000     0.075340000000     0.944860000000     0.214089   
H4       H      0.066240000000     0.932400000000     0.920500000000     0.214708   
H5       H      0.932020000000     0.573860000000     0.431320000000     0.216258   
H6       H      0.062700000000     0.417660000000     0.432830000000     0.211227   
H7       H      0.928580000000     0.440400000000     0.585000000000     0.209767   
H8       H      0.084510000000     0.569050000000     0.566820000000     0.207244   
H9       H      0.557840000000     0.075480000000     0.583690000000     0.211281   
H10      H      0.588360000000     0.942050000000     0.432120000000     0.212775   
H11      H      0.430170000000     0.068670000000     0.427660000000     0.211286   
H12      H      0.432980000000     0.916770000000     0.562030000000     0.206992   
H13      H      0.579450000000     0.421600000000     0.938730000000     0.206488   
H14      H      0.426390000000     0.433310000000     0.074650000000     0.207203   
H15      H      0.436350000000     0.566790000000     0.920620000000     0.212722   
H16      H      0.571820000000     0.576020000000     0.071540000000     0.210389   
H17      H      0.481920000000     0.316360000000     0.294830000000     0.200403   
H18      H      0.466860000000     0.177740000000     0.275960000000     0.0442006  
H19      H      0.591780000000     0.310850000000     0.174340000000     0.0293185  
H20      H      0.559210000000     0.226970000000     0.177090000000     0.0507736  
H21      H      0.547460000000     0.167900000000     0.228630000000     0.046285   
H22      H      0.558170000000     0.291570000000     0.335960000000     0.0570805  
H23      H      0.486530000000     0.389740000000     0.234590000000     0.0548473  
H24      H      0.497610000000     0.120230000000     0.286850000000     0.037952   
H25      H      0.494940000000     0.247130000000     0.169120000000     0.0616516  
H26      H      0.589870000000     0.234150000000     0.344280000000     0.0503345  
H27      H      0.554580000000     0.297490000000     0.120430000000     0.0401583  
H28      H      0.455660000000     0.303910000000     0.235990000000     0.0886898  
H29      H      0.581740000000     0.163270000000     0.285960000000     0.0548672  
H30      H      0.522990000000     0.231020000000     0.401970000000     0.0554881  
H31      H      0.549990000000     0.369560000000     0.246580000000     0.0324603  
H32      H      0.384090000000     0.117470000000     0.349780000000     0.0253155  
H33      H      0.479390000000     0.728780000000     0.296860000000     0.199564   
H34      H      0.456530000000     0.740380000000     0.144110000000     0.0469382  
H35      H      0.572290000000     0.862950000000     0.265360000000     0.0473105  
H36      H      0.510540000000     0.857380000000     0.197700000000     0.0552846  
H37      H      0.523710000000     0.803510000000     0.142320000000     0.0489991  
H38      H      0.559000000000     0.703900000000     0.267340000000     0.0587261  
H39      H      0.503230000000     0.784960000000     0.370550000000     0.0398659  
H40      H      0.497680000000     0.731270000000     0.092390000000     0.0417054  
H41      H      0.459190000000     0.854750000000     0.240500000000     0.0634611  
H42      H      0.589360000000     0.701090000000     0.208730000000     0.0543459  
H43      H      0.524340000000     0.909920000000     0.270900000000     0.0532606  
H44      H      0.447220000000     0.786300000000     0.298540000000     0.0880264  
H45      H      0.571250000000     0.756790000000     0.140190000000     0.0573457  
H46      H      0.534560000000     0.631070000000     0.211940000000     0.0511871  
H47      H      0.557860000000     0.778790000000     0.331280000000     0.0311328  
H48      H      0.380220000000     0.630100000000     0.111800000000     0.0450414  
H49      H      0.482210000000     0.788940000000     0.775100000000     0.200091   
H50      H      0.480530000000     0.633570000000     0.760470000000     0.0418913  
H51      H      0.575270000000     0.773910000000     0.638670000000     0.0310772  
H52      H      0.527340000000     0.696320000000     0.645420000000     0.0494278  
H53      H      0.548010000000     0.642740000000     0.698740000000     0.04297    
H54      H      0.565580000000     0.770100000000     0.799420000000     0.0581204  
H55      H      0.489000000000     0.864760000000     0.717850000000     0.0389996  
H56      H      0.529840000000     0.589150000000     0.771050000000     0.0370104  
H57      H      0.468870000000     0.728790000000     0.649330000000     0.057007   
H58      H      0.603420000000     0.716040000000     0.801730000000     0.0496281  
H59      H      0.526270000000     0.770600000000     0.592680000000     0.0375057  
H60      H      0.448110000000     0.783710000000     0.718910000000     0.0812904  
H61      H      0.594830000000     0.646710000000     0.745990000000     0.0485587  
H62      H      0.549690000000     0.709970000000     0.871820000000     0.052293   
H63      H      0.550460000000     0.837020000000     0.723290000000     0.0323818  
H64      H      0.364360000000     0.616600000000     0.867320000000     0.0282481  
H65      H      0.516010000000     0.288950000000     0.723900000000     0.200226   
H66      H      0.511830000000     0.131190000000     0.739190000000     0.0445673  
H67      H      0.441080000000     0.271550000000     0.873210000000     0.0362951  
H68      H      0.484740000000     0.193830000000     0.855270000000     0.0553066  
H69      H      0.449880000000     0.144640000000     0.805610000000     0.0522543  
H70      H      0.430400000000     0.273000000000     0.707100000000     0.059442   
H71      H      0.518540000000     0.363500000000     0.783990000000     0.0362353  
H72      H      0.458550000000     0.090700000000     0.731270000000     0.0433163  
H73      H      0.542900000000     0.224650000000     0.843980000000     0.0625597  
H74      H      0.390480000000     0.220520000000     0.707950000000     0.0565829  
H75      H      0.497690000000     0.266640000000     0.909570000000     0.0401402  
H76      H      0.555890000000     0.281370000000     0.775660000000     0.0832467  
H77      H      0.400160000000     0.151640000000     0.762140000000     0.0608958  
H78      H      0.437520000000     0.211960000000     0.633210000000     0.0542476  
H79      H      0.455790000000     0.338070000000     0.784640000000     0.0329126  
H80      H      0.619820000000     0.141120000000     0.624200000000     0.0329994  
H81      H      0.771250000000     0.214360000000     0.485150000000     0.199784   
H82      H      0.759660000000     0.371940000000     0.480920000000     0.0436909  
H83      H      0.628080000000     0.238070000000     0.569930000000     0.0481228  
H84      H      0.641190000000     0.311200000000     0.517300000000     0.0557571  
H85      H      0.693680000000     0.363080000000     0.544040000000     0.0480076  
H86      H      0.791480000000     0.234500000000     0.568740000000     0.0543604  
H87      H      0.713330000000     0.139590000000     0.496840000000     0.0366348  
H88      H      0.768530000000     0.415550000000     0.531140000000     0.0379504  
H89      H      0.648000000000     0.274520000000     0.462020000000     0.0586166  
H90      H      0.792650000000     0.289150000000     0.605670000000     0.0505036  
H91      H      0.586970000000     0.236630000000     0.516350000000     0.0555893  
H92      H      0.715860000000     0.216930000000     0.449320000000     0.0816054  
H93      H      0.737810000000     0.358560000000     0.593680000000     0.0556734  
H94      H      0.865840000000     0.292550000000     0.555220000000     0.0473336  
H95      H      0.716340000000     0.172420000000     0.555760000000     0.0260811  
H96      H      0.869610000000     0.379200000000     0.371980000000     0.0542629  
H97      H      0.716920000000     0.734430000000     0.474160000000     0.201071   
H98      H      0.872630000000     0.744020000000     0.467750000000     0.0473757  
H99      H      0.737570000000     0.871110000000     0.567070000000     0.0304742  
H100     H      0.812750000000     0.863140000000     0.515760000000     0.0501077  
H101     H      0.866830000000     0.808300000000     0.532750000000     0.0442066  
H102     H      0.737190000000     0.711420000000     0.557350000000     0.0528273  
H103     H      0.642090000000     0.790870000000     0.486250000000     0.0366712  
H104     H      0.918240000000     0.733910000000     0.516000000000     0.0391118  
H105     H      0.777540000000     0.860060000000     0.458890000000     0.060625   
H106     H      0.792420000000     0.708540000000     0.593650000000     0.0478099  
H107     H      0.737760000000     0.916570000000     0.517470000000     0.0362787  
H108     H      0.720620000000     0.791110000000     0.440320000000     0.0847418  
H109     H      0.863370000000     0.762960000000     0.581530000000     0.0494352  
H110     H      0.794240000000     0.637200000000     0.541240000000     0.0496439  
H111     H      0.673740000000     0.785410000000     0.545610000000     0.027103   
H112     H      0.020280000000     0.721000000000     0.490790000000     0.0293628  
H113     H      0.204710000000     0.180090000000     0.519930000000     0.199279   
H114     H      0.225780000000     0.318440000000     0.537070000000     0.0459361  
H115     H      0.321900000000     0.184440000000     0.406450000000     0.035638   
H116     H      0.320660000000     0.268410000000     0.438480000000     0.0670496  
H117     H      0.271120000000     0.328470000000     0.455750000000     0.0524624  
H118     H      0.160750000000     0.207120000000     0.446060000000     0.0570144  
H119     H      0.264960000000     0.105970000000     0.513430000000     0.0387581  
H120     H      0.214950000000     0.376570000000     0.507750000000     0.0398575  
H121     H      0.331080000000     0.248620000000     0.502430000000     0.0678965  
H122     H      0.152320000000     0.265300000000     0.415860000000     0.0477815  
H123     H      0.377410000000     0.197070000000     0.441520000000     0.0539818  
H124     H      0.264600000000     0.191870000000     0.544060000000     0.0858811  
H125     H      0.212890000000     0.334980000000     0.423080000000     0.0565563  
H126     H      0.097040000000     0.267550000000     0.485060000000     0.0506474  
H127     H      0.250890000000     0.126170000000     0.450370000000     0.0316848  
H128     H      0.167240000000     0.377080000000     0.617520000000     0.0494549  
H129     H      0.233600000000     0.788480000000     0.446940000000     0.201062   
H130     H      0.240190000000     0.632740000000     0.433370000000     0.0483487  
H131     H      0.378960000000     0.759470000000     0.526790000000     0.0284902  
H132     H      0.364890000000     0.690640000000     0.468960000000     0.0548039  
H133     H      0.311860000000     0.636350000000     0.490480000000     0.0467739  
H134     H      0.217970000000     0.764410000000     0.530600000000     0.0544668  
H135     H      0.291560000000     0.862690000000     0.462420000000     0.0574822  
H136     H      0.235830000000     0.585360000000     0.480180000000     0.0404553  
H137     H      0.357050000000     0.731440000000     0.416700000000     0.0692101  
H138     H      0.218660000000     0.707830000000     0.564640000000     0.0485474  
H139     H      0.418730000000     0.765800000000     0.472700000000     0.0401219  
H140     H      0.288160000000     0.789110000000     0.409370000000     0.0963445  
H141     H      0.272450000000     0.637870000000     0.544350000000     0.0497385  
H142     H      0.142110000000     0.709180000000     0.518730000000     0.0493021  
H143     H      0.289170000000     0.825850000000     0.518740000000     0.0284282  
H144     H      0.126920000000     0.608510000000     0.368710000000     0.0456958  
H145     H      0.783090000000     0.531050000000     0.207140000000     0.200453   
H146     H      0.768070000000     0.551670000000     0.362010000000     0.0621491  
H147     H      0.632230000000     0.466240000000     0.238880000000     0.0339516  
H148     H      0.649940000000     0.528480000000     0.304400000000     0.0567239  
H149     H      0.695290000000     0.494850000000     0.358480000000     0.0497045  
H150     H      0.792110000000     0.448010000000     0.235480000000     0.0614874  
H151     H      0.723140000000     0.519510000000     0.132290000000     0.0539834  
H152     H      0.769700000000     0.506260000000     0.411460000000     0.0497947  
H153     H      0.663320000000     0.575780000000     0.259610000000     0.0641491  
H154     H      0.787480000000     0.416390000000     0.293170000000     0.0545831  
H155     H      0.596270000000     0.522620000000     0.230550000000     0.0430164  
H156     H      0.732730000000     0.573590000000     0.204270000000     0.091261   
H157     H      0.734310000000     0.441130000000     0.359650000000     0.0533936  
H158     H      0.866090000000     0.457510000000     0.295010000000     0.0681301  
H159     H      0.721010000000     0.464000000000     0.170490000000     0.0308584  
H160     H      0.780720000000     0.522830000000     0.518910000000     0.0255176  
H161     H      0.279240000000     0.462360000000     0.294180000000     0.197795   
H162     H      0.264970000000     0.466440000000     0.137170000000     0.0427817  
H163     H      0.132340000000     0.542240000000     0.273780000000     0.0340507  
H164     H      0.148460000000     0.493200000000     0.198540000000     0.0532492  
H165     H      0.198110000000     0.528740000000     0.149840000000     0.04943    
H166     H      0.297440000000     0.547240000000     0.278220000000     0.063763   
H167     H      0.218840000000     0.465670000000     0.369800000000     0.0363789  
H168     H      0.271800000000     0.518810000000     0.095720000000     0.041357   
H169     H      0.157880000000     0.437110000000     0.233050000000     0.0594429  
H170     H      0.296840000000     0.587260000000     0.225820000000     0.0629611  
H171     H      0.093860000000     0.486950000000     0.272120000000     0.0414871  
H172     H      0.225570000000     0.424540000000     0.289430000000     0.0818036  
H173     H      0.242010000000     0.578070000000     0.156730000000     0.0597876  
H174     H      0.371220000000     0.538850000000     0.217930000000     0.0689949  
H175     H      0.221300000000     0.527090000000     0.341770000000     0.0327386  
H176     H      0.391720000000     0.364140000000     0.138010000000     0.0353528  
H177     H      0.204480000000     0.464300000000     0.781780000000     0.202076   
H178     H      0.356950000000     0.440840000000     0.769880000000     0.0468922  
H179     H      0.241740000000     0.533770000000     0.634260000000     0.0279868  
H180     H      0.305140000000     0.469060000000     0.651270000000     0.0516811  
H181     H      0.358600000000     0.500640000000     0.698820000000     0.0452585  
H182     H      0.233630000000     0.546610000000     0.793890000000     0.0576355  
H183     H      0.131690000000     0.481450000000     0.721560000000     0.0541825  
H184     H      0.408780000000     0.483040000000     0.773160000000     0.0400011  
H185     H      0.258610000000     0.422670000000     0.661790000000     0.0629532  
H186     H      0.292020000000     0.577430000000     0.791660000000     0.0510216  
H187     H      0.232220000000     0.479050000000     0.596250000000     0.036518   
H188     H      0.201440000000     0.423940000000     0.729640000000     0.095433   
H189     H      0.360110000000     0.552610000000     0.740100000000     0.0528995  
H190     H      0.291240000000     0.534040000000     0.868910000000     0.0509069  
H191     H      0.172350000000     0.535320000000     0.721810000000     0.030236   
H192     H      0.206970000000     0.438090000000     0.058330000000     0.0246634  
H193     H      0.799010000000     0.479400000000     0.810790000000     0.199123   
H194     H      0.775990000000     0.501240000000     0.656280000000     0.0413689  
H195     H      0.659110000000     0.569830000000     0.797770000000     0.0291965  
H196     H      0.673460000000     0.528890000000     0.716360000000     0.0491825  
H197     H      0.722860000000     0.574870000000     0.678030000000     0.0427586  
H198     H      0.827690000000     0.562320000000     0.801650000000     0.058961   
H199     H      0.735720000000     0.477310000000     0.885530000000     0.0376377  
H200     H      0.790850000000     0.555490000000     0.619240000000     0.0380253  
H201     H      0.679190000000     0.469170000000     0.744560000000     0.0605344  
H202     H      0.831210000000     0.606950000000     0.753540000000     0.0492443  
H203     H      0.616170000000     0.519540000000     0.786230000000     0.0375219  
H204     H      0.743590000000     0.446500000000     0.800360000000     0.082927   
H205     H      0.776180000000     0.612740000000     0.687020000000     0.0496021  
H206     H      0.897530000000     0.551180000000     0.734990000000     0.0546858  
H207     H      0.741290000000     0.541620000000     0.865330000000     0.0317576  
H208     H      0.877590000000     0.372640000000     0.638370000000     0.029133   
H209     H      0.805430000000     0.711710000000     0.037130000000     0.198578   
H210     H      0.649870000000     0.732630000000     0.025290000000     0.0433246  
H211     H      0.781270000000     0.849600000000     0.946240000000     0.0472363  
H212     H      0.706280000000     0.836820000000     0.999610000000     0.0613885  
H213     H      0.666270000000     0.789280000000     0.952640000000     0.0533444  
H214     H      0.791970000000     0.685820000000     0.954320000000     0.0583534  
H215     H      0.880760000000     0.773770000000     0.027990000000     0.0349916  
H216     H      0.609210000000     0.720450000000     0.973190000000     0.0427293  
H217     H      0.743590000000     0.832100000000     0.054150000000     0.0635057  
H218     H      0.741290000000     0.683100000000     0.912280000000     0.0504795  
H219     H      0.778090000000     0.893540000000     0.997050000000     0.0534859  
H220     H      0.800570000000     0.767920000000     0.070350000000     0.0833747  
H221     H      0.673550000000     0.737700000000     0.912080000000     0.0549231  
H222     H      0.727770000000     0.615090000000     0.967400000000     0.054063   
H223     H      0.852150000000     0.766320000000     0.967120000000     0.0310338  
H224     H      0.622830000000     0.627900000000     0.143110000000     0.0307923  
H225     H      0.701630000000     0.216020000000     0.000930000000     0.200125   
H226     H      0.855360000000     0.233740000000     0.007100000000     0.0450607  
H227     H      0.707550000000     0.345150000000     0.102940000000     0.0304752  
H228     H      0.790670000000     0.340540000000     0.065670000000     0.0563622  
H229     H      0.843960000000     0.285900000000     0.082320000000     0.0524756  
H230     H      0.717410000000     0.182410000000     0.081620000000     0.0566747  
H231     H      0.625880000000     0.274420000000     0.004290000000     0.0357424  
H232     H      0.899190000000     0.218280000000     0.055740000000     0.040082   
H233     H      0.766370000000     0.341300000000     0.003150000000     0.0640562  
H234     H      0.770000000000     0.176310000000     0.121100000000     0.0504473  
H235     H      0.718170000000     0.395050000000     0.059640000000     0.0421118  
H236     H      0.711370000000     0.273940000000     0.971890000000     0.084216   
H237     H      0.839050000000     0.232630000000     0.121740000000     0.0577718  
H238     H      0.780350000000     0.113030000000     0.060170000000     0.0543752  
H239     H      0.647690000000     0.266400000000     0.067820000000     0.0268815  
H240     H      0.977340000000     0.238340000000     0.991700000000     0.0247128  
H241     H      0.217570000000     0.698660000000     0.017540000000     0.200097   
H242     H      0.236080000000     0.854050000000     0.012400000000     0.0464919  
H243     H      0.356240000000     0.720970000000     0.926610000000     0.0468794  
H244     H      0.344310000000     0.796350000000     0.978270000000     0.0575497  
H245     H      0.293820000000     0.841740000000     0.940270000000     0.0510143  
H246     H      0.191340000000     0.715140000000     0.935040000000     0.058587   
H247     H      0.278610000000     0.623630000000     0.008970000000     0.0386906  
H248     H      0.223880000000     0.896770000000     0.962010000000     0.0433923  
H249     H      0.339370000000     0.760620000000     0.033990000000     0.0625942  
H250     H      0.188220000000     0.767450000000     0.895180000000     0.0599004  
H251     H      0.399990000000     0.724300000000     0.977840000000     0.0543245  
H252     H      0.273800000000     0.703860000000     0.050990000000     0.0852564  
H253     H      0.242960000000     0.835730000000     0.898320000000     0.0556546  
H254     H      0.119980000000     0.777690000000     0.950840000000     0.0690263  
H255     H      0.272060000000     0.652070000000     0.948020000000     0.0301956  
H256     H      0.126130000000     0.870580000000     0.108550000000     0.0616398  
H257     H      0.304570000000     0.213320000000     0.029600000000     0.199151   
H258     H      0.149790000000     0.231680000000     0.031450000000     0.0422933  
H259     H      0.279560000000     0.354230000000     0.945490000000     0.0535704  
H260     H      0.205770000000     0.341760000000     0.000130000000     0.0572575  
H261     H      0.158560000000     0.293260000000     0.961930000000     0.0551405  
H262     H      0.285300000000     0.191850000000     0.946090000000     0.0643429  
H263     H      0.379400000000     0.275470000000     0.024120000000     0.0370783  
H264     H      0.104440000000     0.222570000000     0.982560000000     0.0385544  
H265     H      0.244070000000     0.334550000000     0.053930000000     0.0603908  
H266     H      0.231480000000     0.191060000000     0.907960000000     0.0634546  
H267     H      0.277770000000     0.396920000000     0.997580000000     0.0500579  
H268     H      0.299930000000     0.267300000000     0.066630000000     0.0837175  
H269     H      0.162860000000     0.244830000000     0.917140000000     0.063615   
H270     H      0.222910000000     0.119680000000     0.959540000000     0.0702769  
H271     H      0.350660000000     0.270350000000     0.963190000000     0.0328197  
H272     H      0.052290000000     0.238240000000     0.066170000000     0.0243057  
H273     H      0.684210000000     0.982360000000     0.796770000000     0.199855   
H274     H      0.824280000000     0.976870000000     0.778370000000     0.0433268  
H275     H      0.682010000000     0.099460000000     0.684020000000     0.0310269  
H276     H      0.768370000000     0.073810000000     0.685790000000     0.0489464  
H277     H      0.828560000000     0.060470000000     0.736270000000     0.0432867  
H278     H      0.704360000000     0.056830000000     0.843730000000     0.0669295  
H279     H      0.611290000000     0.984030000000     0.735260000000     0.0386016  
H280     H      0.879540000000     0.011150000000     0.791460000000     0.0379844  
H281     H      0.753560000000     0.008960000000     0.673120000000     0.0577839  
H282     H      0.759980000000     0.091170000000     0.854280000000     0.0676656  
H283     H      0.698830000000     0.067460000000     0.627780000000     0.0354937  
H284     H      0.699490000000     0.960910000000     0.736700000000     0.0830896  
H285     H      0.831190000000     0.091330000000     0.795600000000     0.0537057  
H286     H      0.766830000000     0.020370000000     0.907390000000     0.0707327  
H287     H      0.625450000000     0.047970000000     0.752090000000     0.0332886  
H288     H      0.865380000000     0.884720000000     0.884850000000     0.0432651  
H289     H      0.294050000000     0.019390000000     0.769470000000     0.20025    
H290     H      0.142310000000     0.050330000000     0.760880000000     0.049018   
H291     H      0.264060000000     0.924670000000     0.638730000000     0.0295372  
H292     H      0.195270000000     0.985320000000     0.640260000000     0.0543373  
H293     H      0.137940000000     0.986700000000     0.695490000000     0.0470438  
H294     H      0.260930000000     0.940670000000     0.793640000000     0.0561082  
H295     H      0.367430000000     0.994230000000     0.715480000000     0.0394145  
H296     H      0.088780000000     0.011300000000     0.769480000000     0.0396383  
H297     H      0.237600000000     0.037510000000     0.640710000000     0.0668092  
H298     H      0.200550000000     0.913560000000     0.796430000000     0.0526914  
H299     H      0.269550000000     0.968930000000     0.588760000000     0.0417174  
H300     H      0.296180000000     0.051630000000     0.711760000000     0.0855985  
H301     H      0.132180000000     0.937020000000     0.739960000000     0.0526382  
H302     H      0.208020000000     0.966600000000     0.867160000000     0.0524156  
H303     H      0.326730000000     0.940720000000     0.720700000000     0.0287305  
H304     H      0.139310000000     0.123280000000     0.876830000000     0.0474639  
H305     H      0.215380000000     0.949960000000     0.272290000000     0.200528   
H306     H      0.372500000000     0.947970000000     0.261420000000     0.0464504  
H307     H      0.241620000000     0.036000000000     0.132150000000     0.0518978  
H308     H      0.312450000000     0.978310000000     0.142180000000     0.0565572  
H309     H      0.363550000000     0.009030000000     0.193280000000     0.0498046  
H310     H      0.234030000000     0.034340000000     0.290200000000     0.0577905  
H311     H      0.140050000000     0.963190000000     0.214110000000     0.0566118  
H312     H      0.416350000000     0.998130000000     0.267940000000     0.0386848  
H313     H      0.272030000000     0.925720000000     0.148500000000     0.0650764  
H314     H      0.288130000000     0.072310000000     0.290140000000     0.0527519  
H315     H      0.237670000000     0.984490000000     0.088740000000     0.0518005  
H316     H      0.216230000000     0.914000000000     0.216850000000     0.0948419  
H317     H      0.358230000000     0.059810000000     0.235910000000     0.055848   
H318     H      0.292060000000     0.024020000000     0.364600000000     0.0514049  
H319     H      0.173790000000     0.021280000000     0.219410000000     0.032483   
H320     H      0.515040000000     0.021930000000     0.280340000000     0.0279854  
H321     H      0.729700000000     0.979670000000     0.217800000000     0.201674   
H322     H      0.742960000000     0.985190000000     0.375830000000     0.0420577  
H323     H      0.879420000000     0.056230000000     0.234580000000     0.0317748  
H324     H      0.861380000000     0.013330000000     0.312180000000     0.0527631  
H325     H      0.810280000000     0.045680000000     0.362200000000     0.0477746  
H326     H      0.712750000000     0.065190000000     0.232720000000     0.0552903  
H327     H      0.788350000000     0.980240000000     0.142960000000     0.0380065  
H328     H      0.734970000000     0.038810000000     0.415610000000     0.0400954  
H329     H      0.850830000000     0.954790000000     0.281970000000     0.0606073  
H330     H      0.713150000000     0.105400000000     0.284970000000     0.0496988  
H331     H      0.915530000000     0.999510000000     0.238360000000     0.0394646  
H332     H      0.782580000000     0.940920000000     0.224610000000     0.0842666  
H333     H      0.767530000000     0.096050000000     0.354580000000     0.056395   
H334     H      0.638180000000     0.058430000000     0.292660000000     0.0489134  
H335     H      0.788960000000     0.042190000000     0.169930000000     0.0299005  
H336     H      0.639050000000     0.861030000000     0.388710000000     0.032805   
H337     H      0.032060000000     0.284020000000     0.814670000000     0.198679   
H338     H      0.023620000000     0.267490000000     0.668760000000     0.0592365  
H339     H      0.905630000000     0.179920000000     0.814140000000     0.0306906  
H340     H      0.940270000000     0.173690000000     0.730040000000     0.0503044  
H341     H      0.938610000000     0.228720000000     0.674830000000     0.0471125  
H342     H      0.958650000000     0.332390000000     0.800240000000     0.0666792  
H343     H      0.018860000000     0.228020000000     0.891650000000     0.0344848  
H344     H      0.982080000000     0.284990000000     0.620020000000     0.0468389  
H345     H      0.002110000000     0.159960000000     0.752860000000     0.0635425  
H346     H      0.919900000000     0.345140000000     0.748210000000     0.0675238  
H347     H      0.935180000000     0.120940000000     0.803680000000     0.034222   
H348     H      0.048730000000     0.221280000000     0.805520000000     0.0864914  
H349     H      0.909760000000     0.288680000000     0.678010000000     0.0526715  
H350     H      0.992700000000     0.395870000000     0.736940000000     0.0719179  
H351     H      0.957610000000     0.248410000000     0.871040000000     0.0318058  
H352     H      0.990530000000     0.274830000000     0.519010000000     0.0369894  
H353     H      0.031430000000     0.708580000000     0.782120000000     0.199835   
H354     H      0.033770000000     0.865740000000     0.767570000000     0.0399018  
H355     H      0.963690000000     0.731970000000     0.629610000000     0.0307025  
H356     H      0.013370000000     0.805570000000     0.650120000000     0.0492046  
H357     H      0.975420000000     0.855170000000     0.697120000000     0.043599   
H358     H      0.945680000000     0.727280000000     0.793780000000     0.056544   
H359     H      0.030850000000     0.633750000000     0.721770000000     0.0397514  
H360     H      0.982160000000     0.908660000000     0.771770000000     0.0377154  
H361     H      0.067820000000     0.769580000000     0.663590000000     0.0575357  
H362     H      0.907600000000     0.781010000000     0.790630000000     0.0507677  
H363     H      0.022270000000     0.731550000000     0.596060000000     0.0364777  
H364     H      0.073740000000     0.712800000000     0.731790000000     0.0809547  
H365     H      0.923000000000     0.849850000000     0.737590000000     0.0523382  
H366     H      0.950030000000     0.787900000000     0.868120000000     0.0509577  
H367     H      0.970060000000     0.663440000000     0.719880000000     0.0314908  
H368     H      0.981290000000     0.765370000000     0.998800000000     0.0434618  
H369     H      0.049770000000     0.770440000000     0.294730000000     0.200485   
H370     H      0.052890000000     0.757290000000     0.140400000000     0.0631653  
H371     H      0.954410000000     0.636340000000     0.268730000000     0.0527613  
H372     H      0.012900000000     0.642490000000     0.197670000000     0.0600325  
H373     H      0.984660000000     0.694960000000     0.147020000000     0.0565458  
H374     H      0.966970000000     0.794560000000     0.275380000000     0.0590476  
H375     H      0.032490000000     0.713310000000     0.369900000000     0.0548355  
H376     H      0.005050000000     0.766850000000     0.094420000000     0.0531448  
H377     H      0.065890000000     0.645450000000     0.237980000000     0.0632174  
H378     H      0.929370000000     0.797130000000     0.221170000000     0.0543488  
H379     H      0.003020000000     0.589660000000     0.271690000000     0.0524654  
H380     H      0.082070000000     0.712850000000     0.293760000000     0.0931558  
H381     H      0.938410000000     0.742550000000     0.151330000000     0.0594538  
H382     H      0.983460000000     0.867380000000     0.216700000000     0.0524544  
H383     H      0.974780000000     0.721620000000     0.335970000000     0.0354522  
H384     H      0.100940000000     0.670400000000     0.945100000000     0.0561096  
H385     H      0.963900000000     0.265810000000     0.210410000000     0.199285   
H386     H      0.945440000000     0.256940000000     0.362430000000     0.0603855  
H387     H      0.070170000000     0.142080000000     0.236770000000     0.0322652  
H388     H      0.012940000000     0.141310000000     0.308350000000     0.0522094  
H389     H      0.015450000000     0.197360000000     0.364050000000     0.0487163  
H390     H      0.042830000000     0.296770000000     0.236800000000     0.0555287  
H391     H      0.988390000000     0.212070000000     0.136410000000     0.0354914  
H392     H      0.986830000000     0.268790000000     0.413370000000     0.0528886  
H393     H      0.958670000000     0.137800000000     0.268970000000     0.0595353  
H394     H      0.074450000000     0.302690000000     0.294580000000     0.0494069  
H395     H      0.028340000000     0.089680000000     0.234170000000     0.0406424  
H396     H      0.936290000000     0.205730000000     0.210970000000     0.0816095  
H397     H      0.060950000000     0.246400000000     0.365140000000     0.0499104  
H398     H      0.015080000000     0.368920000000     0.290860000000     0.0526817  
H399     H      0.044190000000     0.222830000000     0.172990000000     0.0279982  
H400     H      0.792210000000     0.322200000000     0.321880000000     0.0443135  
N1       N      0.501710000000     0.174650000000     0.348080000000    -0.165221   
N2       N      0.521760000000     0.348800000000     0.174810000000    -0.176253   
N3       N      0.503870000000     0.676340000000     0.152480000000    -0.16484    
N4       N      0.521820000000     0.849960000000     0.325820000000    -0.173934   
N5       N      0.524130000000     0.648990000000     0.825800000000    -0.164506   
N6       N      0.514930000000     0.824280000000     0.652820000000    -0.176227   
N7       N      0.465430000000     0.150490000000     0.676870000000    -0.163291   
N8       N      0.498540000000     0.322130000000     0.850390000000    -0.175226   
N9       N      0.822270000000     0.354520000000     0.527790000000    -0.165346   
N10      N      0.647210000000     0.182240000000     0.516450000000    -0.174808   
N11      N      0.856610000000     0.680710000000     0.514040000000    -0.164518   
N12      N      0.683890000000     0.856180000000     0.509940000000    -0.177272   
N13      N      0.152490000000     0.323310000000     0.504460000000    -0.164827   
N14      N      0.323640000000     0.146920000000     0.476390000000    -0.177032   
N15      N      0.182650000000     0.646870000000     0.487330000000    -0.164969   
N16      N      0.358020000000     0.819360000000     0.478440000000    -0.173865   
N17      N      0.824920000000     0.496180000000     0.352410000000    -0.162693   
N18      N      0.656000000000     0.510290000000     0.176560000000    -0.174722   
N19      N      0.327070000000     0.513780000000     0.155340000000    -0.163076   
N20      N      0.153280000000     0.487140000000     0.327640000000    -0.175626   
N21      N      0.349070000000     0.495680000000     0.827700000000    -0.165352   
N22      N      0.177650000000     0.490950000000     0.655520000000    -0.176587   
N23      N      0.846690000000     0.534550000000     0.674720000000    -0.163853   
N24      N      0.673010000000     0.505730000000     0.843370000000    -0.175907   
N25      N      0.666820000000     0.664180000000     0.987190000000    -0.164899   
N26      N      0.835780000000     0.836060000000     0.002920000000    -0.176674   
N27      N      0.840920000000     0.163100000000     0.041910000000    -0.164088   
N28      N      0.665770000000     0.337270000000     0.035570000000    -0.177043   
N29      N      0.168030000000     0.838280000000     0.972850000000    -0.162129   
N30      N      0.342000000000     0.667440000000     0.984080000000    -0.175181   
N31      N      0.163280000000     0.166290000000     0.987160000000    -0.164092   
N32      N      0.335070000000     0.339040000000     0.001040000000    -0.174157   
N33      N      0.824880000000     0.007020000000     0.852750000000    -0.163535   
N34      N      0.649630000000     0.027060000000     0.678900000000    -0.176855   
N35      N      0.149180000000     0.000900000000     0.823390000000    -0.164253   
N36      N      0.323510000000     0.976720000000     0.649480000000    -0.17654    
N37      N      0.355110000000     0.997350000000     0.321910000000    -0.165447   
N38      N      0.183220000000     0.984470000000     0.149120000000    -0.172598   
N39      N      0.681160000000     0.031710000000     0.355170000000    -0.164486   
N40      N      0.855410000000     0.999640000000     0.183800000000    -0.176481   
N41      N      0.997320000000     0.343060000000     0.676090000000    -0.161452   
N42      N      0.974790000000     0.172500000000     0.852920000000    -0.177511   
N43      N      0.982420000000     0.848510000000     0.826510000000    -0.164318   
N44      N      0.015140000000     0.676340000000     0.655000000000    -0.175645   
N45      N      0.007790000000     0.821910000000     0.154560000000    -0.163709   
N46      N      0.008020000000     0.649580000000     0.326480000000    -0.1734     
N47      N      0.989400000000     0.323250000000     0.352570000000    -0.162951   
N48      N      0.014650000000     0.148890000000     0.179930000000    -0.176336   
O1       O      0.007980000000     0.134470000000     0.095450000000    -0.376677   
O2       O      0.008930000000     0.851350000000     0.074290000000    -0.375642   
O3       O      0.934830000000     0.994740000000     0.151720000000    -0.373185   
O4       O      0.097880000000     0.985260000000     0.136540000000    -0.371274   
O5       O      0.151490000000     0.993460000000     0.070190000000    -0.374437   
O6       O      0.867390000000     0.995360000000     0.098670000000    -0.373528   
O7       O      0.010650000000     0.906540000000     0.139670000000    -0.372868   
O8       O      0.016510000000     0.068870000000     0.149840000000    -0.375584   
O9       O      0.057820000000     0.944140000000     0.044500000000    -0.506875   
O10      O      0.957120000000     0.044630000000     0.061860000000    -0.508071   
O11      O      0.955700000000     0.944010000000     0.054600000000    -0.645562   
O12      O      0.058200000000     0.046330000000     0.052990000000    -0.65436    
O13      O      0.989460000000     0.861850000000     0.911480000000    -0.363945   
O14      O      0.993410000000     0.147580000000     0.933020000000    -0.375505   
O15      O      0.861280000000     0.917100000000     0.008080000000    -0.378949   
O16      O      0.142580000000     0.918770000000     0.984970000000    -0.374985   
O17      O      0.144710000000     0.081960000000     0.989920000000    -0.362616   
O18      O      0.859410000000     0.080140000000     0.026860000000    -0.365253   
O19      O      0.908100000000     0.004340000000     0.871720000000    -0.381115   
O20      O      0.069640000000     0.009130000000     0.854960000000    -0.378984   
O21      O      0.850880000000     0.003610000000     0.935320000000    -0.36379    
O22      O      0.136190000000     0.000630000000     0.908270000000    -0.370091   
O23      O      0.919970000000     0.854900000000     0.001560000000    -0.374939   
O24      O      0.921500000000     0.139180000000     0.025300000000    -0.378968   
O25      O      0.083220000000     0.140280000000     0.002430000000    -0.382817   
O26      O      0.083890000000     0.856270000000     0.983490000000    -0.358641   
O27      O      0.988850000000     0.928070000000     0.857250000000    -0.378943   
O28      O      0.983010000000     0.089730000000     0.870620000000    -0.382514   
O29      O      0.048260000000     0.054130000000     0.951620000000    -0.515123   
O30      O      0.946290000000     0.951580000000     0.954890000000    -0.508396   
O31      O      0.946120000000     0.053250000000     0.961870000000    -0.656188   
O32      O      0.047780000000     0.951670000000     0.945010000000    -0.658967   
O33      O      0.985560000000     0.353370000000     0.432640000000    -0.373622   
O34      O      0.011960000000     0.635390000000     0.411350000000    -0.370824   
O35      O      0.909720000000     0.492300000000     0.367300000000    -0.366083   
O36      O      0.073130000000     0.488720000000     0.357730000000    -0.375359   
O37      O      0.138760000000     0.485500000000     0.412810000000    -0.372643   
O38      O      0.855340000000     0.507670000000     0.431680000000    -0.374996   
O39      O      0.998630000000     0.570500000000     0.357020000000    -0.372234   
O40      O      0.990600000000     0.408120000000     0.367110000000    -0.371205   
O41      O      0.052970000000     0.541960000000     0.445650000000    -0.514398   
O42      O      0.942550000000     0.450520000000     0.459950000000    -0.514066   
O43      O      0.952630000000     0.552470000000     0.452110000000    -0.655569   
O44      O      0.044460000000     0.441330000000     0.453340000000    -0.659988   
O45      O      0.015370000000     0.645690000000     0.575180000000    -0.376276   
O46      O      0.996990000000     0.364820000000     0.593860000000    -0.380538   
O47      O      0.868880000000     0.595580000000     0.511460000000    -0.36935    
O48      O      0.150540000000     0.567560000000     0.488790000000    -0.380838   
O49      O      0.134450000000     0.406620000000     0.501970000000    -0.383513   
O50      O      0.853860000000     0.433410000000     0.517880000000    -0.379232   
O51      O      0.929260000000     0.519680000000     0.652420000000    -0.361898   
O52      O      0.093060000000     0.499040000000     0.641330000000    -0.372343   
O53      O      0.867510000000     0.521350000000     0.593020000000    -0.380587   
O54      O      0.147590000000     0.491120000000     0.575610000000    -0.381174   
O55      O      0.935210000000     0.648910000000     0.501520000000    -0.378564   
O56      O      0.907430000000     0.366550000000     0.520060000000    -0.369098   
O57      O      0.070390000000     0.350220000000     0.508650000000    -0.369573   
O58      O      0.097340000000     0.634500000000     0.492190000000    -0.373921   
O59      O      0.014950000000     0.591160000000     0.641310000000    -0.369971   
O60      O      0.003960000000     0.426310000000     0.652840000000    -0.360925   
O61      O      0.050800000000     0.448720000000     0.554810000000    -0.50365    
O62      O      0.960940000000     0.557930000000     0.553630000000    -0.507652   
O63      O      0.950200000000     0.457720000000     0.561630000000    -0.649866   
O64      O      0.060400000000     0.548900000000     0.548720000000    -0.646476   
O65      O      0.596120000000     0.021920000000     0.367600000000    -0.367395   
O66      O      0.570980000000     0.003290000000     0.652400000000    -0.370401   
O67      O      0.634770000000     0.097320000000     0.512980000000    -0.374068   
O68      O      0.651310000000     0.935330000000     0.513400000000    -0.379264   
O69      O      0.599310000000     0.868620000000     0.499630000000    -0.378119   
O70      O      0.567430000000     0.150310000000     0.515540000000    -0.368842   
O71      O      0.633560000000     0.019030000000     0.595810000000    -0.384516   
O72      O      0.649980000000     0.021140000000     0.434210000000    -0.378177   
O73      O      0.553920000000     0.952180000000     0.553680000000    -0.508376   
O74      O      0.550770000000     0.060640000000     0.459510000000    -0.512142   
O75      O      0.541720000000     0.053110000000     0.560220000000    -0.653559   
O76      O      0.563550000000     0.959090000000     0.452370000000    -0.660408   
O77      O      0.408380000000     0.984160000000     0.636300000000    -0.374877   
O78      O      0.434640000000     0.000660000000     0.353480000000    -0.378273   
O79      O      0.474990000000     0.136670000000     0.592100000000    -0.365008   
O80      O      0.514900000000     0.854960000000     0.573170000000    -0.38006    
O81      O      0.518640000000     0.864540000000     0.410670000000    -0.37396    
O82      O      0.496240000000     0.149420000000     0.430300000000    -0.365155   
O83      O      0.349830000000     0.066490000000     0.491170000000    -0.370333   
O84      O      0.369630000000     0.904550000000     0.482860000000    -0.36738    
O85      O      0.405580000000     0.131720000000     0.493620000000    -0.378367   
O86      O      0.437050000000     0.851660000000     0.486670000000    -0.376829   
O87      O      0.479690000000     0.071400000000     0.647430000000    -0.373504   
O88      O      0.504800000000     0.091750000000     0.367670000000    -0.383994   
O89      O      0.520640000000     0.930030000000     0.355690000000    -0.373868   
O90      O      0.502140000000     0.908510000000     0.638760000000    -0.37391    
O91      O      0.354260000000     0.981720000000     0.569860000000    -0.378367   
O92      O      0.367880000000     0.993470000000     0.406870000000    -0.365231   
O93      O      0.461740000000     0.949190000000     0.443430000000    -0.508034   
O94      O      0.441520000000     0.041940000000     0.551120000000    -0.502537   
O95      O      0.450930000000     0.049050000000     0.449920000000    -0.653945   
O96      O      0.453000000000     0.941300000000     0.544380000000    -0.648105   
O97      O      0.361810000000     0.419850000000     0.997070000000    -0.374043   
O98      O      0.642750000000     0.418120000000     0.021950000000    -0.379033   
O99      O      0.501440000000     0.352420000000     0.930330000000    -0.379793   
O100     O      0.509390000000     0.366590000000     0.092770000000    -0.381201   
O101     O      0.502020000000     0.429080000000     0.150860000000    -0.366304   
O102     O      0.506930000000     0.406870000000     0.864590000000    -0.376573   
O103     O      0.583520000000     0.356250000000     0.017050000000    -0.371113   
O104     O      0.419480000000     0.357450000000     0.008590000000    -0.372734   
O105     O      0.549550000000     0.454130000000     0.057250000000    -0.506266   
O106     O      0.453760000000     0.445790000000     0.952650000000    -0.512068   
O107     O      0.557680000000     0.444040000000     0.957110000000    -0.648017   
O108     O      0.448290000000     0.452780000000     0.053300000000    -0.64755    
O109     O      0.647500000000     0.580870000000     0.998420000000    -0.36573    
O110     O      0.360080000000     0.583420000000     0.991780000000    -0.372352   
O111     O      0.591450000000     0.495850000000     0.865900000000    -0.381302   
O112     O      0.576130000000     0.508800000000     0.146470000000    -0.374889   
O113     O      0.412260000000     0.511440000000     0.140100000000    -0.364313   
O114     O      0.429020000000     0.489630000000     0.857200000000    -0.380634   
O115     O      0.514140000000     0.634780000000     0.910140000000    -0.364755   
O116     O      0.500490000000     0.646520000000     0.072330000000    -0.378433   
O117     O      0.513360000000     0.569220000000     0.855070000000    -0.375188   
O118     O      0.499710000000     0.591710000000     0.138080000000    -0.368978   
O119     O      0.651730000000     0.497020000000     0.926860000000    -0.369399   
O120     O      0.364170000000     0.499520000000     0.912380000000    -0.368296   
O121     O      0.356430000000     0.506340000000     0.075280000000    -0.378287   
O122     O      0.641880000000     0.506240000000     0.091410000000    -0.365956   
O123     O      0.585310000000     0.639510000000     0.993390000000    -0.381326   
O124     O      0.423280000000     0.640970000000     0.986520000000    -0.378333   
O125     O      0.449310000000     0.555090000000     0.046360000000    -0.51507    
O126     O      0.556390000000     0.545070000000     0.950660000000    -0.513619   
O127     O      0.455390000000     0.546860000000     0.944160000000    -0.658916   
O128     O      0.551720000000     0.553490000000     0.051500000000    -0.648308   
O129     O      0.411530000000     0.238400000000     0.321740000000    -0.184088   
O130     O      0.432180000000     0.276450000000     0.412930000000    -0.174579   
O131     O      0.470820000000     0.321960000000     0.330380000000    -0.281391   
O132     O      0.412900000000     0.698010000000     0.217860000000    -0.179312   
O133     O      0.441760000000     0.607610000000     0.252470000000    -0.168005   
O134     O      0.472450000000     0.692000000000     0.301300000000    -0.288153   
O135     O      0.426670000000     0.702950000000     0.808900000000    -0.18877    
O136     O      0.455050000000     0.742030000000     0.897810000000    -0.179971   
O137     O      0.476080000000     0.792960000000     0.812040000000    -0.289673   
O138     O      0.565060000000     0.201800000000     0.685670000000    -0.189838   
O139     O      0.530510000000     0.241670000000     0.599180000000    -0.178079   
O140     O      0.518280000000     0.293160000000     0.686530000000    -0.292013   
O141     O      0.805890000000     0.299880000000     0.430470000000    -0.18542    
O142     O      0.894750000000     0.261520000000     0.460240000000    -0.176197   
O143     O      0.808470000000     0.210220000000     0.480240000000    -0.293672   
O144     O      0.801400000000     0.698870000000     0.417560000000    -0.175238   
O145     O      0.761330000000     0.610740000000     0.446650000000    -0.176949   
O146     O      0.712040000000     0.697580000000     0.468170000000    -0.29171    
O147     O      0.183240000000     0.257450000000     0.592080000000    -0.174955   
O148     O      0.089920000000     0.222200000000     0.576280000000    -0.16969    
O149     O      0.169380000000     0.175100000000     0.532330000000    -0.288407   
O150     O      0.194830000000     0.705280000000     0.390240000000    -0.175816   
O151     O      0.108410000000     0.743340000000     0.426580000000    -0.168447   
O152     O      0.196220000000     0.792820000000     0.443660000000    -0.276904   
O153     O      0.824080000000     0.589000000000     0.288220000000    -0.171952   
O154     O      0.908230000000     0.543250000000     0.255250000000    -0.168731   
O155     O      0.820710000000     0.530760000000     0.203700000000    -0.278786   
O156     O      0.313980000000     0.413360000000     0.205360000000    -0.184884   
O157     O      0.402700000000     0.443240000000     0.243960000000    -0.165406   
O158     O      0.316710000000     0.458610000000     0.297490000000    -0.282868   
O159     O      0.283570000000     0.403660000000     0.823660000000    -0.176268   
O160     O      0.248810000000     0.448070000000     0.907600000000    -0.173423   
O161     O      0.199940000000     0.463260000000     0.819170000000    -0.27833    
O162     O      0.828570000000     0.433150000000     0.718570000000    -0.189857   
O163     O      0.919800000000     0.453250000000     0.757900000000    -0.174448   
O164     O      0.836010000000     0.472250000000     0.813440000000    -0.286998   
O165     O      0.714930000000     0.682540000000     0.087150000000    -0.18338    
O166     O      0.752740000000     0.591330000000     0.065300000000    -0.167339   
O167     O      0.808230000000     0.674790000000     0.044230000000    -0.284306   
O168     O      0.789600000000     0.189200000000     0.945510000000    -0.185221   
O169     O      0.750870000000     0.097370000000     0.962530000000    -0.175559   
O170     O      0.698000000000     0.179760000000     0.991460000000    -0.290092   
O171     O      0.187200000000     0.786610000000     0.071010000000    -0.176476   
O172     O      0.096260000000     0.748750000000     0.047150000000    -0.172239   
O173     O      0.180580000000     0.695280000000     0.024420000000    -0.290648   
O174     O      0.218590000000     0.177760000000     0.084270000000    -0.183465   
O175     O      0.256760000000     0.089790000000     0.051950000000    -0.173504   
O176     O      0.308410000000     0.176090000000     0.033920000000    -0.287425   
O177     O      0.766460000000     0.915550000000     0.819120000000    -0.188225   
O178     O      0.726820000000     0.927130000000     0.911230000000    -0.177707   
O179     O      0.679220000000     0.968780000000     0.831510000000    -0.287221   
O180     O      0.218570000000     0.089020000000     0.802840000000    -0.18153    
O181     O      0.253230000000     0.056220000000     0.891930000000    -0.171262   
O182     O      0.299300000000     0.025710000000     0.806220000000    -0.289406   
O183     O      0.302690000000     0.897670000000     0.308740000000    -0.172763   
O184     O      0.263200000000     0.929630000000     0.396200000000    -0.163521   
O185     O      0.211580000000     0.945360000000     0.309500000000    -0.276014   
O186     O      0.690970000000     0.931450000000     0.305640000000    -0.186477   
O187     O      0.604630000000     0.964890000000     0.264480000000    -0.18235    
O188     O      0.692340000000     0.976710000000     0.213480000000    -0.291901   
O189     O      0.090470000000     0.299050000000     0.725450000000    -0.168985   
O190     O      0.092020000000     0.392620000000     0.763020000000    -0.160977   
O191     O      0.048710000000     0.317740000000     0.817380000000    -0.283628   
O192     O      0.081280000000     0.794350000000     0.825640000000    -0.188114   
O193     O      0.038540000000     0.754170000000     0.908230000000    -0.178147   
O194     O      0.031900000000     0.704330000000     0.819550000000    -0.290275   
O195     O      0.105830000000     0.802550000000     0.208300000000    -0.167639   
O196     O      0.079610000000     0.892240000000     0.246760000000    -0.164507   
O197     O      0.056910000000     0.807230000000     0.298480000000    -0.275725   
O198     O      0.897670000000     0.294590000000     0.290680000000    -0.182932   
O199     O      0.920120000000     0.385460000000     0.252850000000    -0.171599   
O200     O      0.954190000000     0.301860000000     0.205380000000    -0.291378   
S1       S      0.455310000000     0.266020000000     0.356220000000     0.282994   
S2       S      0.459500000000     0.666580000000     0.244490000000     0.284868   
S3       S      0.470960000000     0.735340000000     0.838220000000     0.285149   
S4       S      0.519530000000     0.235470000000     0.659930000000     0.284364   
S5       S      0.834720000000     0.267860000000     0.475280000000     0.286616   
S6       S      0.769160000000     0.670270000000     0.462370000000     0.285652   
S7       S      0.145600000000     0.231380000000     0.550020000000     0.284271   
S8       S      0.169080000000     0.735640000000     0.437960000000     0.287524   
S9       S      0.846570000000     0.537650000000     0.261400000000     0.289124   
S10      S      0.342250000000     0.457160000000     0.239210000000     0.287677   
S11      S      0.256880000000     0.454960000000     0.846410000000     0.287368   
S12      S      0.860730000000     0.472230000000     0.754700000000     0.283423   
S13      S      0.749330000000     0.650400000000     0.046510000000     0.285177   
S14      S      0.756250000000     0.154830000000     0.985180000000     0.284165   
S15      S      0.155510000000     0.753610000000     0.028900000000     0.286866   
S16      S      0.250410000000     0.150040000000     0.038600000000     0.287072   
S17      S      0.736130000000     0.954860000000     0.856490000000     0.284396   
S18      S      0.243420000000     0.040530000000     0.832680000000     0.284883   
S19      S      0.269480000000     0.942700000000     0.335850000000     0.28873    
S20      S      0.665370000000     0.976260000000     0.271000000000     0.284966   
S21      S      0.058390000000     0.340540000000     0.758800000000     0.286092   
S22      S      0.032760000000     0.761700000000     0.846900000000     0.283967   
S23      S      0.062260000000     0.832980000000     0.240630000000     0.2871     
S24      S      0.941580000000     0.327920000000     0.261910000000     0.283616   
Zr1      Zr     0.012310000000     0.990580000000     0.103270000000     1.43021    
Zr2      Zr     0.001650000000     0.896940000000     0.995750000000     1.42703    
Zr3      Zr     0.002300000000     0.099520000000     0.010890000000     1.42893    
Zr4      Zr     0.900490000000     0.998880000000     0.013110000000     1.43192    
Zr5      Zr     0.102830000000     0.999970000000     0.993460000000     1.4364     
Zr6      Zr     0.992670000000     0.005890000000     0.904470000000     1.44008    
Zr7      Zr     0.994170000000     0.492440000000     0.403130000000     1.44124    
Zr8      Zr     0.012030000000     0.600210000000     0.496260000000     1.42914    
Zr9      Zr     0.992780000000     0.399840000000     0.510740000000     1.43462    
Zr10     Zr     0.902320000000     0.510190000000     0.509900000000     1.43517    
Zr11     Zr     0.101680000000     0.491070000000     0.497070000000     1.4326     
Zr12     Zr     0.008460000000     0.506210000000     0.606360000000     1.42394    
Zr13     Zr     0.601750000000     0.012010000000     0.511020000000     1.43529    
Zr14     Zr     0.493630000000     0.992980000000     0.602860000000     1.41885    
Zr15     Zr     0.511630000000     0.007940000000     0.401850000000     1.43987    
Zr16     Zr     0.490300000000     0.101360000000     0.508330000000     1.43724    
Zr17     Zr     0.513560000000     0.900920000000     0.494840000000     1.42898    
Zr18     Zr     0.401400000000     0.990260000000     0.492300000000     1.43065    
Zr19     Zr     0.502130000000     0.399010000000     0.008550000000     1.42556    
Zr20     Zr     0.605290000000     0.499620000000     0.006940000000     1.42966    
Zr21     Zr     0.401620000000     0.501410000000     0.996240000000     1.43193    
Zr22     Zr     0.508250000000     0.491000000000     0.901750000000     1.43616    
Zr23     Zr     0.496540000000     0.507210000000     0.102660000000     1.43393    
Zr24     Zr     0.503930000000     0.599490000000     0.994240000000     1.44362    


