data_structure

_audit_creation_method RASPA-1.0
_audit_creation_date 2023-5-25
_audit_author_name 'Poobodin Mano'

_cell_length_a    27.1288
_cell_length_b    27.1766
_cell_length_c    26.9884
_cell_angle_alpha 90
_cell_angle_beta  90
_cell_angle_gamma 90
_cell_volume      19897.7

_symmetry_cell_setting          triclinic
_symmetry_space_group_name_Hall 'P 1'
_symmetry_space_group_name_H-M  'P 1'
_symmetry_Int_Tables_number     1

_symmetry_equiv_pos_as_xyz 'x,y,z'

loop_
_atom_site_label
_atom_site_type_symbol
_atom_site_fract_x
_atom_site_fract_y
_atom_site_fract_z
_atom_site_charge
C1       C      0.995030000000     0.113470000000     0.130740000000     0.394469   
C2       C      0.008380000000     0.862990000000     0.113840000000     0.394004   
C3       C      0.875450000000     0.984360000000     0.126280000000     0.391834   
C4       C      0.127170000000     0.992980000000     0.118710000000     0.396743   
C5       C      0.997730000000     0.878950000000     0.861700000000     0.396228   
C6       C      0.989920000000     0.129950000000     0.878460000000     0.393852   
C7       C      0.876870000000     0.866290000000     0.988410000000     0.397634   
C8       C      0.127980000000     0.877020000000     0.980000000000     0.398376   
C9       C      0.117810000000     0.127090000000     0.999380000000     0.395064   
C10      C      0.866780000000     0.115950000000     0.010490000000     0.395415   
C11      C      0.867540000000     0.998390000000     0.873840000000     0.394486   
C12      C      0.119160000000     0.011720000000     0.866430000000     0.394263   
C13      C      0.994200000000     0.362550000000     0.379960000000     0.394933   
C14      C      0.000730000000     0.613230000000     0.364130000000     0.394771   
C15      C      0.871940000000     0.486480000000     0.370600000000     0.394548   
C16      C      0.123940000000     0.488600000000     0.374140000000     0.394203   
C17      C      0.993680000000     0.629300000000     0.616280000000     0.393586   
C18      C      0.995640000000     0.378050000000     0.632350000000     0.395702   
C19      C      0.871520000000     0.622210000000     0.491370000000     0.393178   
C20      C      0.123180000000     0.620190000000     0.493280000000     0.39357    
C21      C      0.121040000000     0.369020000000     0.506450000000     0.391625   
C22      C      0.869440000000     0.370870000000     0.504270000000     0.393872   
C23      C      0.868490000000     0.504950000000     0.622950000000     0.394336   
C24      C      0.120300000000     0.501340000000     0.626920000000     0.394313   
C25      C      0.625690000000     0.989260000000     0.374410000000     0.392443   
C26      C      0.373890000000     0.989380000000     0.368100000000     0.392383   
C27      C      0.502620000000     0.863040000000     0.378610000000     0.393995   
C28      C      0.497100000000     0.114240000000     0.364730000000     0.393507   
C29      C      0.367420000000     0.999420000000     0.621030000000     0.393414   
C30      C      0.619410000000     0.004400000000     0.626980000000     0.394836   
C31      C      0.371620000000     0.868770000000     0.501870000000     0.392543   
C32      C      0.369800000000     0.119890000000     0.488690000000     0.393823   
C33      C      0.621540000000     0.122260000000     0.496890000000     0.391894   
C34      C      0.623350000000     0.871020000000     0.505100000000     0.3954     
C35      C      0.494350000000     0.876470000000     0.631040000000     0.393995   
C36      C      0.493760000000     0.127790000000     0.617250000000     0.393877   
C37      C      0.364950000000     0.374870000000     0.995370000000     0.39631    
C38      C      0.375190000000     0.624270000000     0.018590000000     0.396153   
C39      C      0.372430000000     0.490950000000     0.127840000000     0.395213   
C40      C      0.367730000000     0.509430000000     0.875510000000     0.394494   
C41      C      0.626000000000     0.615220000000     0.009800000000     0.39592    
C42      C      0.616370000000     0.365540000000     0.986440000000     0.398526   
C43      C      0.505360000000     0.612740000000     0.132890000000     0.393081   
C44      C      0.496630000000     0.628590000000     0.880400000000     0.393017   
C45      C      0.490540000000     0.377440000000     0.865270000000     0.396191   
C46      C      0.491470000000     0.362100000000     0.117540000000     0.396523   
C47      C      0.623910000000     0.483800000000     0.122830000000     0.394796   
C48      C      0.619330000000     0.499220000000     0.870490000000     0.395155   
C49      C      0.494370000000     0.201530000000     0.338380000000     0.0118116  
C50      C      0.494440000000     0.272630000000     0.134560000000     0.0104964  
C51      C      0.490680000000     0.336340000000     0.205410000000    -0.0436884  
C52      C      0.466230000000     0.236540000000     0.167700000000    -0.0972242  
C53      C      0.525290000000     0.231030000000     0.301540000000    -0.106071   
C54      C      0.462740000000     0.297840000000     0.236130000000    -0.0744717  
C55      C      0.509040000000     0.217580000000     0.249700000000     0.0343852  
C56      C      0.479030000000     0.246790000000     0.221210000000     0.0190841  
C57      C      0.490000000000     0.132030000000     0.274830000000     0.0107866  
C58      C      0.519730000000     0.164020000000     0.238760000000    -0.10595    
C59      C      0.543000000000     0.342110000000     0.223680000000     0.30604    
C60      C      0.510130000000     0.773490000000     0.362120000000     0.0108249  
C61      C      0.509710000000     0.699830000000     0.159020000000     0.0106322  
C62      C      0.503110000000     0.629670000000     0.223130000000    -0.0437067  
C63      C      0.540430000000     0.728560000000     0.196530000000    -0.0966148  
C64      C      0.480260000000     0.738130000000     0.329580000000    -0.105451   
C65      C      0.531340000000     0.662740000000     0.259910000000    -0.0742016  
C66      C      0.493440000000     0.747320000000     0.275870000000     0.0334502  
C67      C      0.522220000000     0.716380000000     0.247910000000     0.0191434  
C68      C      0.510680000000     0.835410000000     0.291290000000     0.010327   
C69      C      0.480150000000     0.799250000000     0.260520000000    -0.104678   
C70      C      0.449250000000     0.626730000000     0.237090000000     0.306277   
C71      C      0.499150000000     0.858690000000     0.721130000000     0.0106703  
C72      C      0.495900000000     0.655150000000     0.792620000000     0.00952979 
C73      C      0.492290000000     0.718360000000     0.863650000000    -0.0439512  
C74      C      0.526330000000     0.692100000000     0.762880000000    -0.0968216  
C75      C      0.469170000000     0.825990000000     0.756360000000    -0.10521    
C76      C      0.520520000000     0.754600000000     0.830060000000    -0.0750121  
C77      C      0.481280000000     0.772590000000     0.745910000000     0.0335861  
C78      C      0.509730000000     0.743500000000     0.776180000000     0.0186044  
C79      C      0.498290000000     0.789200000000     0.657570000000     0.0109429  
C80      C      0.467120000000     0.758800000000     0.693510000000    -0.10477    
C81      C      0.438700000000     0.733050000000     0.867430000000     0.308109   
C82      C      0.489720000000     0.155430000000     0.704840000000     0.0118118  
C83      C      0.498390000000     0.359940000000     0.775560000000     0.00855264 
C84      C      0.488430000000     0.290080000000     0.839320000000    -0.0408791  
C85      C      0.470830000000     0.328260000000     0.737580000000    -0.0966778  
C86      C      0.521470000000     0.191630000000     0.734260000000    -0.105697   
C87      C      0.460870000000     0.260750000000     0.799390000000    -0.0757835  
C88      C      0.507640000000     0.243580000000     0.719500000000     0.0328748  
C89      C      0.479960000000     0.274440000000     0.748630000000     0.018559   
C90      C      0.487420000000     0.217360000000     0.634010000000     0.0114517  
C91      C      0.518560000000     0.252780000000     0.665270000000    -0.105852   
C92      C      0.539710000000     0.269740000000     0.846970000000     0.304379   
C93      C      0.709540000000     0.145430000000     0.506040000000     0.0108287  
C94      C      0.780880000000     0.349240000000     0.498870000000     0.0104526  
C95      C      0.847690000000     0.282310000000     0.507940000000    -0.0436634  
C96      C      0.745850000000     0.316320000000     0.528500000000    -0.0977947  
C97      C      0.743890000000     0.179680000000     0.477030000000    -0.105492   
C98      C      0.809610000000     0.251100000000     0.536200000000    -0.0755412  
C99      C      0.730440000000     0.232500000000     0.488620000000     0.0328777  
C100     C      0.758240000000     0.263090000000     0.518050000000     0.0190164  
C101     C      0.642470000000     0.211050000000     0.500580000000     0.0111002  
C102     C      0.678430000000     0.243790000000     0.471750000000    -0.105625   
C103     C      0.855790000000     0.261910000000     0.456520000000     0.307349   
C104     C      0.782990000000     0.645990000000     0.490320000000     0.0112281  
C105     C      0.712090000000     0.849580000000     0.509840000000     0.0100351  
C106     C      0.645470000000     0.782450000000     0.507400000000    -0.0429034  
C107     C      0.745020000000     0.816770000000     0.477800000000    -0.0971109  
C108     C      0.754500000000     0.679210000000     0.526150000000    -0.10457    
C109     C      0.681310000000     0.750510000000     0.477050000000    -0.0742681  
C110     C      0.766090000000     0.732410000000     0.513940000000     0.0330855  
C111     C      0.734180000000     0.763400000000     0.489610000000     0.0195779  
C112     C      0.850180000000     0.711000000000     0.485730000000     0.0109248  
C113     C      0.820410000000     0.743110000000     0.521560000000    -0.105032   
C114     C      0.642060000000     0.764550000000     0.560280000000     0.304589   
C115     C      0.280860000000     0.142210000000     0.486720000000     0.0112928  
C116     C      0.209600000000     0.346220000000     0.508540000000     0.00923524 
C117     C      0.142030000000     0.280080000000     0.509760000000    -0.044075   
C118     C      0.240340000000     0.312830000000     0.474960000000    -0.0962888  
C119     C      0.251810000000     0.175030000000     0.522510000000    -0.105925   
C120     C      0.175980000000     0.247280000000     0.478080000000    -0.0737986  
C121     C      0.262550000000     0.228490000000     0.510490000000     0.0342978  
C122     C      0.229610000000     0.259650000000     0.487770000000     0.0185425  
C123     C      0.346830000000     0.208220000000     0.481620000000     0.011838   
C124     C      0.316820000000     0.239910000000     0.517610000000    -0.105927   
C125     C      0.140930000000     0.262730000000     0.562930000000     0.306527   
C126     C      0.283010000000     0.845460000000     0.502980000000     0.0107257  
C127     C      0.212040000000     0.641520000000     0.490960000000     0.0100347  
C128     C      0.145270000000     0.708740000000     0.489910000000    -0.0442579  
C129     C      0.244250000000     0.675510000000     0.522520000000    -0.0971002  
C130     C      0.253910000000     0.811050000000     0.468840000000    -0.104973   
C131     C      0.180460000000     0.741460000000     0.520150000000    -0.0747774  
C132     C      0.265350000000     0.758310000000     0.482970000000     0.0330791  
C133     C      0.233480000000     0.728380000000     0.508660000000     0.019543   
C134     C      0.349970000000     0.780210000000     0.509250000000     0.0107366  
C135     C      0.319480000000     0.746990000000     0.475090000000    -0.105375   
C136     C      0.142880000000     0.725560000000     0.436620000000     0.307463   
C137     C      0.850620000000     0.484490000000     0.281210000000     0.012204   
C138     C      0.647430000000     0.476840000000     0.211270000000     0.00866379 
C139     C      0.713090000000     0.478120000000     0.142430000000    -0.0431034  
C140     C      0.682770000000     0.506070000000     0.244090000000    -0.095346   
C141     C      0.817660000000     0.450810000000     0.249960000000    -0.10681    
C142     C      0.747580000000     0.505190000000     0.178630000000    -0.0736446  
C143     C      0.764420000000     0.462850000000     0.261350000000     0.0357825  
C144     C      0.735040000000     0.491390000000     0.231480000000     0.0168266  
C145     C      0.783430000000     0.485460000000     0.347700000000     0.0127789  
C146     C      0.752660000000     0.451320000000     0.314860000000    -0.107361   
C147     C      0.728660000000     0.425080000000     0.136380000000     0.303999   
C148     C      0.213030000000     0.490250000000     0.353900000000     0.0110274  
C149     C      0.284120000000     0.488210000000     0.151040000000     0.00979292 
C150     C      0.352510000000     0.486130000000     0.217390000000    -0.0434969  
C151     C      0.252380000000     0.517750000000     0.187140000000    -0.0967423  
C152     C      0.245810000000     0.458390000000     0.320690000000    -0.105979   
C153     C      0.317380000000     0.514240000000     0.252080000000    -0.0743817  
C154     C      0.235100000000     0.471540000000     0.267360000000     0.0347596  
C155     C      0.264570000000     0.501700000000     0.239290000000     0.0184887  
C156     C      0.147810000000     0.490120000000     0.285430000000     0.0112028  
C157     C      0.182560000000     0.458540000000     0.253980000000    -0.105934   
C158     C      0.356640000000     0.432840000000     0.232820000000     0.307244   
C159     C      0.140910000000     0.509740000000     0.716050000000     0.011418   
C160     C      0.344200000000     0.510430000000     0.786980000000     0.0116064  
C161     C      0.278530000000     0.511590000000     0.856330000000    -0.0429555  
C162     C      0.308410000000     0.539590000000     0.754530000000    -0.0976834  
C163     C      0.174860000000     0.480980000000     0.750980000000    -0.10541    
C164     C      0.244330000000     0.539150000000     0.820230000000    -0.0749809  
C165     C      0.227740000000     0.494070000000     0.739000000000     0.0342969  
C166     C      0.256390000000     0.524650000000     0.767520000000     0.0201115  
C167     C      0.208570000000     0.506980000000     0.650320000000     0.0119183  
C168     C      0.240840000000     0.478330000000     0.686860000000    -0.105754   
C169     C      0.261740000000     0.458980000000     0.862820000000     0.306631   
C170     C      0.779600000000     0.512320000000     0.644020000000     0.011794   
C171     C      0.707690000000     0.497730000000     0.847360000000     0.00866104 
C172     C      0.639690000000     0.501720000000     0.780830000000    -0.0426261  
C173     C      0.739560000000     0.530580000000     0.814420000000    -0.0962564  
C174     C      0.746660000000     0.480180000000     0.676890000000    -0.106476   
C175     C      0.675270000000     0.532310000000     0.748740000000    -0.074778   
C176     C      0.758070000000     0.491470000000     0.730640000000     0.0351712  
C177     C      0.728030000000     0.518900000000     0.760930000000     0.0170119  
C178     C      0.844970000000     0.511190000000     0.711670000000     0.0123749  
C179     C      0.810990000000     0.478620000000     0.742940000000    -0.107138   
C180     C      0.635320000000     0.449950000000     0.760910000000     0.306282   
C181     C      0.714430000000     0.632690000000     0.025310000000     0.0117828  
C182     C      0.789470000000     0.839320000000     0.990560000000     0.0106703  
C183     C      0.857710000000     0.778760000000     0.970250000000    -0.0418619  
C184     C      0.766640000000     0.802010000000     0.025950000000    -0.09732    
C185     C      0.751350000000     0.661640000000     0.993720000000    -0.104101   
C186     C      0.831930000000     0.739380000000     0.002400000000    -0.0720198  
C187     C      0.741230000000     0.716490000000     0.997570000000     0.0302566  
C188     C      0.777240000000     0.750300000000     0.007790000000     0.0214767  
C189     C      0.653110000000     0.702000000000     0.019680000000     0.0124592  
C190     C      0.688250000000     0.730420000000     0.986040000000    -0.103938   
C191     C      0.847650000000     0.771500000000     0.915600000000     0.302672   
C192     C      0.839370000000     0.203200000000     0.014410000000     0.011822   
C193     C      0.635590000000     0.278290000000     0.968060000000     0.00866007 
C194     C      0.704040000000     0.339950000000     0.987240000000    -0.0433781  
C195     C      0.662990000000     0.238500000000     0.997410000000    -0.0965368  
C196     C      0.806310000000     0.227610000000     0.975780000000    -0.103642   
C197     C      0.730320000000     0.299990000000     0.017410000000    -0.0738001  
C198     C      0.752890000000     0.214770000000     0.986410000000     0.028715   
C199     C      0.717850000000     0.249020000000     0.998380000000     0.0226595  
C200     C      0.777860000000     0.134300000000     0.023160000000     0.0117845  
C201     C      0.743100000000     0.159700000000     0.986280000000    -0.104753   
C202     C      0.727590000000     0.346880000000     0.936970000000     0.30866    
C203     C      0.356320000000     0.709890000000     0.044420000000     0.0137325  
C204     C      0.153370000000     0.791220000000     0.961850000000     0.0141926  
C205     C      0.217040000000     0.857550000000     0.970140000000    -0.0397465  
C206     C      0.180450000000     0.757670000000     0.998000000000    -0.0979865  
C207     C      0.324100000000     0.747960000000     0.018050000000    -0.0994295  
C208     C      0.247910000000     0.825160000000     0.005180000000    -0.0725072  
C209     C      0.269340000000     0.734850000000     0.014830000000     0.0242513  
C210     C      0.235080000000     0.770360000000     0.002980000000     0.0259892  
C211     C      0.290090000000     0.647260000000     0.042770000000     0.0143972  
C212     C      0.255110000000     0.680450000000     0.013930000000    -0.100322   
C213     C      0.235310000000     0.855070000000     0.917200000000     0.30196    
C214     C      0.338910000000     0.287380000000     0.991080000000     0.0116027  
C215     C      0.136530000000     0.215830000000     0.008660000000     0.00999044 
C216     C      0.205620000000     0.151950000000     0.996770000000    -0.0429369  
C217     C      0.167120000000     0.252760000000     0.978870000000    -0.096823   
C218     C      0.305330000000     0.257800000000     0.025530000000    -0.105643   
C219     C      0.234690000000     0.191380000000     0.968290000000    -0.0740725  
C220     C      0.252360000000     0.271250000000     0.014310000000     0.0351223  
C221     C      0.221230000000     0.242070000000     0.987030000000     0.0183598  
C222     C      0.275370000000     0.356360000000     0.991710000000     0.0098796  
C223     C      0.242630000000     0.324980000000     0.025550000000    -0.105321   
C224     C      0.226850000000     0.144140000000     0.047920000000     0.304134   
C225     C      0.842910000000     0.003480000000     0.785570000000     0.0135613  
C226     C      0.639690000000     0.002980000000     0.716380000000     0.0104425  
C227     C      0.707780000000     0.006250000000     0.649530000000    -0.042442   
C228     C      0.674000000000     0.031610000000     0.750980000000    -0.0970081  
C229     C      0.807500000000     0.973080000000     0.753830000000    -0.10716    
C230     C      0.739880000000     0.034220000000     0.687050000000    -0.0748652  
C231     C      0.755350000000     0.987430000000     0.767260000000     0.0357336  
C232     C      0.726700000000     0.018200000000     0.738990000000     0.0184188  
C233     C      0.778270000000     0.003440000000     0.854480000000     0.0130534  
C234     C      0.744040000000     0.973930000000     0.820440000000    -0.107129   
C235     C      0.725830000000     0.954040000000     0.643160000000     0.305135   
C236     C      0.139490000000     0.009810000000     0.777010000000     0.0114977  
C237     C      0.343170000000     0.008220000000     0.709030000000     0.0110423  
C238     C      0.277950000000     0.001040000000     0.639740000000    -0.0421059  
C239     C      0.307280000000     0.981840000000     0.743730000000    -0.0986051  
C240     C      0.173030000000     0.038710000000     0.741750000000    -0.105704   
C241     C      0.243650000000     0.976280000000     0.677710000000    -0.0765059  
C242     C      0.226070000000     0.027680000000     0.754750000000     0.0340693  
C243     C      0.255260000000     0.995210000000     0.729050000000     0.0207008  
C244     C      0.207200000000     0.016510000000     0.843230000000     0.0074387  
C245     C      0.237850000000     0.046100000000     0.806160000000    -0.103097   
C246     C      0.260830000000     0.052880000000     0.629120000000     0.305205   
C247     C      0.353670000000     0.994650000000     0.278610000000     0.0104154  
C248     C      0.151230000000     0.985790000000     0.206940000000     0.0101756  
C249     C      0.216670000000     0.993500000000     0.138140000000    -0.0432188  
C250     C      0.184730000000     0.016180000000     0.240600000000    -0.0981186  
C251     C      0.321040000000     0.964330000000     0.243700000000    -0.105589   
C252     C      0.249420000000     0.021240000000     0.175520000000    -0.0756023  
C253     C      0.267590000000     0.974800000000     0.255710000000     0.0330498  
C254     C      0.237630000000     0.004560000000     0.227680000000     0.0195925  
C255     C      0.285730000000     0.989490000000     0.344070000000     0.0107152  
C256     C      0.255440000000     0.958440000000     0.307860000000    -0.105487   
C257     C      0.236000000000     0.942000000000     0.129960000000     0.305705   
C258     C      0.787340000000     0.983180000000     0.150510000000     0.0106432  
C259     C      0.714720000000     0.982250000000     0.355070000000     0.00908473 
C260     C      0.649440000000     0.984270000000     0.285810000000    -0.0443863  
C261     C      0.750210000000     0.009460000000     0.320500000000    -0.0961455  
C262     C      0.757050000000     0.951370000000     0.186020000000    -0.105154   
C263     C      0.687550000000     0.010620000000     0.253000000000    -0.0737425  
C264     C      0.769260000000     0.966350000000     0.238560000000     0.0325373  
C265     C      0.739170000000     0.995170000000     0.267500000000     0.0177133  
C266     C      0.855430000000     0.986590000000     0.215930000000     0.00996983 
C267     C      0.822760000000     0.955500000000     0.250170000000    -0.105181   
C268     C      0.643260000000     0.931340000000     0.269880000000     0.307326   
C269     C      0.989990000000     0.157710000000     0.791040000000     0.0112895  
C270     C      0.989190000000     0.360820000000     0.722190000000     0.00931918 
C271     C      0.995390000000     0.290690000000     0.658010000000    -0.0450136  
C272     C      0.016130000000     0.327890000000     0.759490000000    -0.0963458  
C273     C      0.958300000000     0.194450000000     0.762350000000    -0.106252   
C274     C      0.022200000000     0.260200000000     0.697540000000    -0.0732581  
C275     C      0.973850000000     0.245850000000     0.776900000000     0.0341803  
C276     C      0.004170000000     0.274700000000     0.748430000000     0.0188571  
C277     C      0.993870000000     0.219670000000     0.862270000000     0.010646   
C278     C      0.963120000000     0.255440000000     0.831030000000    -0.106499   
C279     C      0.943310000000     0.272410000000     0.650590000000     0.305433   
C280     C      0.988380000000     0.861220000000     0.771970000000     0.0107381  
C281     C      0.996520000000     0.657610000000     0.703470000000     0.00955308 
C282     C      0.994320000000     0.719330000000     0.630900000000    -0.0433815  
C283     C      0.967060000000     0.694640000000     0.734100000000    -0.097084   
C284     C      0.018110000000     0.830850000000     0.734440000000    -0.105266   
C285     C      0.966590000000     0.755370000000     0.665050000000    -0.0757227  
C286     C      0.010780000000     0.776740000000     0.745580000000     0.0343169  
C287     C      0.981090000000     0.746100000000     0.718310000000     0.0195324  
C288     C      0.999110000000     0.791740000000     0.834830000000     0.00804419 
C289     C      0.029960000000     0.764060000000     0.796550000000    -0.103552   
C290     C      0.046960000000     0.735960000000     0.623510000000     0.305918   
C291     C      0.003780000000     0.700160000000     0.335890000000     0.0115379  
C292     C      0.022430000000     0.774320000000     0.129730000000     0.0101716  
C293     C      0.011720000000     0.835570000000     0.201370000000    -0.0413355  
C294     C      0.996690000000     0.734640000000     0.160790000000    -0.0980916  
C295     C      0.039730000000     0.725620000000     0.300580000000    -0.104609   
C296     C      0.985230000000     0.794910000000     0.230420000000    -0.0759691  
C297     C      0.026180000000     0.712470000000     0.247800000000     0.0307494  
C298     C      0.004190000000     0.744670000000     0.215470000000     0.0203917  
C299     C      0.995900000000     0.630230000000     0.273850000000     0.0104155  
C300     C      0.030750000000     0.657630000000     0.238570000000    -0.10475    
C301     C      0.063470000000     0.843170000000     0.220620000000     0.306948   
C302     C      0.991780000000     0.334440000000     0.292450000000     0.0104664  
C303     C      0.001800000000     0.130010000000     0.220700000000     0.0111584  
C304     C      0.993100000000     0.200580000000     0.157600000000    -0.0432921  
C305     C      0.973450000000     0.161100000000     0.258560000000    -0.0976422  
C306     C      0.024170000000     0.297380000000     0.264930000000    -0.104439   
C307     C      0.964940000000     0.229560000000     0.197370000000    -0.0747238  
C308     C      0.008530000000     0.245820000000     0.279220000000     0.0322888  
C309     C      0.982580000000     0.215080000000     0.248450000000     0.0192271  
C310     C      0.984140000000     0.273280000000     0.363290000000     0.00883184 
C311     C      0.015830000000     0.236610000000     0.334110000000    -0.104371   
C312     C      0.044630000000     0.220660000000     0.151100000000     0.305649   
H1       H      0.932040000000     0.918250000000     0.064310000000     0.20835    
H2       H      0.067190000000     0.065070000000     0.069610000000     0.214059   
H3       H      0.921730000000     0.068230000000     0.932210000000     0.208898   
H4       H      0.068290000000     0.934300000000     0.918340000000     0.213818   
H5       H      0.926940000000     0.562190000000     0.422120000000     0.208264   
H6       H      0.067020000000     0.420610000000     0.432800000000     0.209291   
H7       H      0.924220000000     0.430190000000     0.572710000000     0.211906   
H8       H      0.066220000000     0.569770000000     0.565970000000     0.211827   
H9       H      0.428370000000     0.920700000000     0.428870000000     0.208922   
H10      H      0.568480000000     0.062890000000     0.424790000000     0.209023   
H11      H      0.566110000000     0.929480000000     0.574000000000     0.213742   
H12      H      0.423920000000     0.068660000000     0.563190000000     0.212043   
H13      H      0.430140000000     0.562930000000     0.076250000000     0.213902   
H14      H      0.421200000000     0.432060000000     0.925300000000     0.211161   
H15      H      0.564850000000     0.417580000000     0.064200000000     0.214396   
H16      H      0.567780000000     0.567570000000     0.931490000000     0.208128   
H17      H      0.524290000000     0.270740000000     0.310270000000     0.0545862  
H18      H      0.534060000000     0.262150000000     0.134400000000     0.0446055  
H19      H      0.450290000000     0.134800000000     0.264950000000     0.0314159  
H20      H      0.512360000000     0.151980000000     0.200470000000     0.0471131  
H21      H      0.473290000000     0.198690000000     0.154860000000     0.0448009  
H22      H      0.464790000000     0.305960000000     0.276230000000     0.0439008  
H23      H      0.507990000000     0.210060000000     0.376260000000     0.0356161  
H24      H      0.480760000000     0.267770000000     0.096050000000     0.0384454  
H25      H      0.559650000000     0.156880000000     0.244840000000     0.0552629  
H26      H      0.422790000000     0.301500000000     0.227520000000     0.0508829  
H27      H      0.501170000000     0.093090000000     0.269120000000     0.0372065  
H28      H      0.564630000000     0.220500000000     0.306330000000     0.0586909  
H29      H      0.426020000000     0.242450000000     0.162220000000     0.0536656  
H30      H      0.471570000000     0.371940000000     0.212300000000     0.0716273  
H31      H      0.455430000000     0.214160000000     0.336190000000     0.0310077  
H32      H      0.586610000000     0.381410000000     0.270330000000     0.178367   
H33      H      0.485710000000     0.700190000000     0.342880000000     0.05058    
H34      H      0.471500000000     0.714610000000     0.158840000000     0.044255   
H35      H      0.550140000000     0.831420000000     0.280860000000     0.0357257  
H36      H      0.483770000000     0.807150000000     0.220540000000     0.0478467  
H37      H      0.541130000000     0.768160000000     0.187320000000     0.0434108  
H38      H      0.523180000000     0.651420000000     0.298290000000     0.044536   
H39      H      0.497850000000     0.768520000000     0.401080000000     0.0374845  
H40      H      0.525530000000     0.707010000000     0.121710000000     0.0374786  
H41      H      0.440480000000     0.805660000000     0.268760000000     0.0558795  
H42      H      0.571440000000     0.655320000000     0.255520000000     0.044868   
H43      H      0.499130000000     0.873360000000     0.281290000000     0.0413433  
H44      H      0.440360000000     0.745860000000     0.335010000000     0.0564779  
H45      H      0.579510000000     0.716630000000     0.193040000000     0.0509886  
H46      H      0.519050000000     0.592130000000     0.227450000000     0.0620676  
H47      H      0.549640000000     0.762670000000     0.360390000000     0.0324965  
H48      H      0.383490000000     0.662280000000     0.233360000000     0.175742   
H49      H      0.475130000000     0.838280000000     0.794810000000     0.0506183  
H50      H      0.457160000000     0.656050000000     0.779230000000     0.0461013  
H51      H      0.537470000000     0.777650000000     0.661040000000     0.0351811  
H52      H      0.469520000000     0.719200000000     0.684670000000     0.0478466  
H53      H      0.525410000000     0.683170000000     0.722980000000     0.0439534  
H54      H      0.513540000000     0.792770000000     0.842060000000     0.0451435  
H55      H      0.486920000000     0.897350000000     0.726510000000     0.0371753  
H56      H      0.510530000000     0.617840000000     0.784360000000     0.0367487  
H57      H      0.427660000000     0.768240000000     0.687500000000     0.0572895  
H58      H      0.560680000000     0.749220000000     0.836450000000     0.0453103  
H59      H      0.486140000000     0.780310000000     0.619280000000     0.0416449  
H60      H      0.429290000000     0.832200000000     0.749130000000     0.0583035  
H61      H      0.565730000000     0.687730000000     0.773450000000     0.050573   
H62      H      0.508520000000     0.722590000000     0.901290000000     0.0605129  
H63      H      0.538630000000     0.856800000000     0.732090000000     0.0329905  
H64      H      0.390220000000     0.774070000000     0.907120000000     0.18094    
H65      H      0.519560000000     0.183850000000     0.774400000000     0.0546194  
H66      H      0.538490000000     0.358050000000     0.767410000000     0.0532937  
H67      H      0.448020000000     0.228250000000     0.637250000000     0.0300823  
H68      H      0.512150000000     0.290620000000     0.652110000000     0.0461674  
H69      H      0.481520000000     0.340640000000     0.700230000000     0.0446183  
H70      H      0.460710000000     0.220920000000     0.807810000000     0.045442   
H71      H      0.501910000000     0.117520000000     0.714260000000     0.0369994  
H72      H      0.487010000000     0.398810000000     0.769770000000     0.0424931  
H73      H      0.558220000000     0.245230000000     0.658140000000     0.0564731  
H74      H      0.421250000000     0.271190000000     0.801230000000     0.0468781  
H75      H      0.498160000000     0.222280000000     0.594580000000     0.0362299  
H76      H      0.560760000000     0.185200000000     0.724370000000     0.0596287  
H77      H      0.430670000000     0.335870000000     0.740740000000     0.0511924  
H78      H      0.467770000000     0.283850000000     0.874410000000     0.0596223  
H79      H      0.450730000000     0.159200000000     0.717030000000     0.0311691  
H80      H      0.578720000000     0.217370000000     0.883660000000     0.176351   
H81      H      0.782710000000     0.169610000000     0.483700000000     0.0531654  
H82      H      0.771410000000     0.346390000000     0.458900000000     0.0454088  
H83      H      0.642180000000     0.222970000000     0.540010000000     0.0312355  
H84      H      0.666980000000     0.282590000000     0.474720000000     0.0469082  
H85      H      0.707350000000     0.327150000000     0.521330000000     0.0441894  
H86      H      0.819730000000     0.211740000000     0.535690000000     0.0455714  
H87      H      0.717820000000     0.106990000000     0.494740000000     0.0375765  
H88      H      0.773740000000     0.387950000000     0.510090000000     0.0364844  
H89      H      0.675140000000     0.234900000000     0.431650000000     0.0558439  
H90      H      0.811900000000     0.261120000000     0.576110000000     0.0497069  
H91      H      0.604880000000     0.217460000000     0.485520000000     0.0355152  
H92      H      0.738170000000     0.173030000000     0.436770000000     0.0575549  
H93      H      0.751510000000     0.323780000000     0.568630000000     0.0532295  
H94      H      0.883070000000     0.277990000000     0.528380000000     0.0687952  
H95      H      0.718240000000     0.148630000000     0.546190000000     0.0320238  
H96      H      0.894820000000     0.211390000000     0.417310000000     0.175138   
H97      H      0.715030000000     0.669440000000     0.526560000000     0.0514366  
H98      H      0.723990000000     0.846260000000     0.549090000000     0.0482815  
H99      H      0.842440000000     0.723290000000     0.447190000000     0.0291875  
H100     H      0.831620000000     0.781880000000     0.517650000000     0.0477136  
H101     H      0.783650000000     0.828430000000     0.482220000000     0.0451144  
H102     H      0.671410000000     0.711230000000     0.480050000000     0.0426913  
H103     H      0.775800000000     0.607100000000     0.500760000000     0.0362141  
H104     H      0.718740000000     0.888370000000     0.498650000000     0.0427092  
H105     H      0.830730000000     0.733020000000     0.560140000000     0.0572993  
H106     H      0.675390000000     0.759020000000     0.437160000000     0.0474485  
H107     H      0.889970000000     0.717600000000     0.492880000000     0.0389199  
H108     H      0.767360000000     0.671280000000     0.564470000000     0.0591875  
H109     H      0.736200000000     0.823740000000     0.438160000000     0.0544743  
H110     H      0.608590000000     0.776770000000     0.490230000000     0.06273    
H111     H      0.768190000000     0.651530000000     0.452290000000     0.0280773  
H112     H      0.599050000000     0.726480000000     0.608490000000     0.175674   
H113     H      0.212600000000     0.164420000000     0.522600000000     0.0513965  
H114     H      0.223320000000     0.342770000000     0.547180000000     0.0462371  
H115     H      0.338350000000     0.220130000000     0.443110000000     0.0301869  
H116     H      0.327460000000     0.278850000000     0.513740000000     0.0467993  
H117     H      0.279310000000     0.324040000000     0.476790000000     0.0437231  
H118     H      0.165630000000     0.208260000000     0.482290000000     0.044232   
H119     H      0.274270000000     0.103220000000     0.497180000000     0.0434651  
H120     H      0.216360000000     0.384860000000     0.496930000000     0.0363303  
H121     H      0.327550000000     0.229950000000     0.556110000000     0.0583636  
H122     H      0.168170000000     0.255290000000     0.438420000000     0.0451814  
H123     H      0.386570000000     0.215610000000     0.488200000000     0.0360333  
H124     H      0.264700000000     0.167310000000     0.560860000000     0.0653742  
H125     H      0.229290000000     0.319610000000     0.435860000000     0.0502719  
H126     H      0.104300000000     0.274670000000     0.494500000000     0.0635142  
H127     H      0.266000000000     0.147530000000     0.448690000000     0.0311931  
H128     H      0.099890000000     0.225460000000     0.613470000000     0.177168   
H129     H      0.214500000000     0.821070000000     0.468620000000     0.0528822  
H130     H      0.224980000000     0.643190000000     0.451930000000     0.0465705  
H131     H      0.342910000000     0.769270000000     0.548320000000     0.030911   
H132     H      0.330440000000     0.708300000000     0.480300000000     0.0473359  
H133     H      0.283060000000     0.663960000000     0.519480000000     0.0440059  
H134     H      0.170590000000     0.780670000000     0.516120000000     0.0439285  
H135     H      0.276040000000     0.883940000000     0.490950000000     0.0375724  
H136     H      0.218290000000     0.603220000000     0.503930000000     0.0367617  
H137     H      0.329350000000     0.755550000000     0.436020000000     0.0559153  
H138     H      0.173890000000     0.733820000000     0.560120000000     0.0501849  
H139     H      0.389600000000     0.773260000000     0.501590000000     0.0369119  
H140     H      0.266300000000     0.817430000000     0.430070000000     0.0581186  
H141     H      0.234610000000     0.669840000000     0.562170000000     0.0522375  
H142     H      0.108040000000     0.714690000000     0.506150000000     0.0695979  
H143     H      0.268490000000     0.841660000000     0.541340000000     0.0314961  
H144     H      0.103680000000     0.767330000000     0.388240000000     0.177664   
H145     H      0.828130000000     0.452750000000     0.210510000000     0.051781   
H146     H      0.648870000000     0.437460000000     0.222270000000     0.0494578  
H147     H      0.770120000000     0.523870000000     0.342840000000     0.0279308  
H148     H      0.713310000000     0.453210000000     0.325020000000     0.0481918  
H149     H      0.672210000000     0.502090000000     0.283340000000     0.0441284  
H150     H      0.786450000000     0.500140000000     0.167680000000     0.0434387  
H151     H      0.889520000000     0.473190000000     0.275140000000     0.0365114  
H152     H      0.609440000000     0.489980000000     0.219200000000     0.0436173  
H153     H      0.763430000000     0.412640000000     0.322930000000     0.060845   
H154     H      0.741270000000     0.545410000000     0.174260000000     0.0444612  
H155     H      0.776640000000     0.475000000000     0.386930000000     0.0369529  
H156     H      0.825140000000     0.412010000000     0.260730000000     0.0606192  
H157     H      0.677870000000     0.545910000000     0.235980000000     0.0504984  
H158     H      0.718470000000     0.496330000000     0.105870000000     0.0625392  
H159     H      0.846840000000     0.522840000000     0.267340000000     0.0275215  
H160     H      0.769400000000     0.378830000000     0.093780000000     0.176026   
H161     H      0.284710000000     0.461450000000     0.332160000000     0.0523538  
H162     H      0.271610000000     0.449260000000     0.151310000000     0.0462698  
H163     H      0.150920000000     0.529060000000     0.273160000000     0.031952   
H164     H      0.173310000000     0.461600000000     0.214270000000     0.0475969  
H165     H      0.213090000000     0.515300000000     0.176810000000     0.0437708  
H166     H      0.328030000000     0.508910000000     0.291190000000     0.0511211  
H167     H      0.218950000000     0.478360000000     0.392860000000     0.0362221  
H168     H      0.277000000000     0.502690000000     0.113190000000     0.0376894  
H169     H      0.175870000000     0.419190000000     0.263130000000     0.0561064  
H170     H      0.322900000000     0.554330000000     0.245760000000     0.054326   
H171     H      0.109420000000     0.478030000000     0.277790000000     0.0357487  
H172     H      0.236220000000     0.419080000000     0.326990000000     0.0565224  
H173     H      0.261670000000     0.557410000000     0.182910000000     0.0511807  
H174     H      0.389490000000     0.502980000000     0.222900000000     0.0752278  
H175     H      0.225370000000     0.529180000000     0.351070000000     0.0343132  
H176     H      0.394820000000     0.385730000000     0.276870000000     0.175947   
H177     H      0.163510000000     0.486820000000     0.789760000000     0.0513153  
H178     H      0.343970000000     0.471310000000     0.774930000000     0.0434218  
H179     H      0.219720000000     0.546360000000     0.651120000000     0.0295961  
H180     H      0.280130000000     0.481810000000     0.676870000000     0.0471973  
H181     H      0.318370000000     0.535970000000     0.715050000000     0.0442026  
H182     H      0.205390000000     0.534970000000     0.831330000000     0.0440166  
H183     H      0.102450000000     0.497520000000     0.723100000000     0.037079   
H184     H      0.381900000000     0.524830000000     0.779830000000     0.038209   
H185     H      0.232630000000     0.438440000000     0.682660000000     0.0585981  
H186     H      0.251380000000     0.579280000000     0.824380000000     0.0485529  
H187     H      0.216360000000     0.492890000000     0.612460000000     0.0367599  
H188     H      0.169260000000     0.440970000000     0.744350000000     0.0585526  
H189     H      0.313270000000     0.579420000000     0.762720000000     0.0548262  
H190     H      0.274340000000     0.530430000000     0.892760000000     0.0610475  
H191     H      0.142990000000     0.549490000000     0.725650000000     0.0312744  
H192     H      0.263180000000     0.390710000000     0.832210000000     0.175297   
H193     H      0.707720000000     0.484200000000     0.665890000000     0.0521131  
H194     H      0.720070000000     0.459000000000     0.843120000000     0.0520481  
H195     H      0.840630000000     0.550050000000     0.723860000000     0.0300791  
H196     H      0.821150000000     0.481010000000     0.782430000000     0.0480888  
H197     H      0.778660000000     0.527550000000     0.825150000000     0.0442014  
H198     H      0.665030000000     0.530170000000     0.709210000000     0.0445721  
H199     H      0.772800000000     0.502000000000     0.604780000000     0.0362423  
H200     H      0.714740000000     0.508370000000     0.886490000000     0.0424006  
H201     H      0.817810000000     0.439530000000     0.732800000000     0.0601572  
H202     H      0.669720000000     0.571800000000     0.758130000000     0.0446334  
H203     H      0.883660000000     0.500190000000     0.719420000000     0.036089   
H204     H      0.755540000000     0.440900000000     0.669450000000     0.0599828  
H205     H      0.729850000000     0.569640000000     0.822010000000     0.050061   
H206     H      0.602850000000     0.519240000000     0.776510000000     0.060102   
H207     H      0.768170000000     0.551380000000     0.648450000000     0.0303216  
H208     H      0.597500000000     0.407100000000     0.712350000000     0.178353   
H209     H      0.788180000000     0.650830000000     0.007580000000     0.0463351  
H210     H      0.770940000000     0.836290000000     0.953920000000     0.0408642  
H211     H      0.659010000000     0.714160000000     0.058590000000     0.0287809  
H212     H      0.679780000000     0.770110000000     0.987870000000     0.0469002  
H213     H      0.727370000000     0.810660000000     0.032230000000     0.0434991  
H214     H      0.840210000000     0.703250000000     0.985360000000     0.0443646  
H215     H      0.720230000000     0.592820000000     0.018320000000     0.0382022  
H216     H      0.781890000000     0.876760000000     0.005230000000     0.0355927  
H217     H      0.680550000000     0.719750000000     0.947010000000     0.0572315  
H218     H      0.848770000000     0.739300000000     0.039960000000     0.0421631  
H219     H      0.614690000000     0.711640000000     0.009210000000     0.0357354  
H220     H      0.748320000000     0.650060000000     0.954330000000     0.0574215  
H221     H      0.784310000000     0.806470000000     0.062870000000     0.0501335  
H222     H      0.897920000000     0.772810000000     0.975760000000     0.0571193  
H223     H      0.723140000000     0.639360000000     0.065040000000     0.0287707  
H224     H      0.797650000000     0.747210000000     0.865120000000     0.176717   
H225     H      0.814410000000     0.267360000000     0.972920000000     0.0538419  
H226     H      0.643460000000     0.272970000000     0.928000000000     0.0541309  
H227     H      0.766660000000     0.145170000000     0.061290000000     0.0300276  
H228     H      0.705280000000     0.149280000000     0.997330000000     0.0452849  
H229     H      0.653520000000     0.203310000000     0.979130000000     0.045268   
H230     H      0.770060000000     0.308420000000     0.020540000000     0.0426635  
H231     H      0.878350000000     0.212220000000     0.005660000000     0.0373145  
H232     H      0.595420000000     0.271930000000     0.972840000000     0.045314   
H233     H      0.749740000000     0.144940000000     0.948450000000     0.0542742  
H234     H      0.716570000000     0.302210000000     0.056180000000     0.0518745  
H235     H      0.772530000000     0.093880000000     0.020230000000     0.0360738  
H236     H      0.816000000000     0.212430000000     0.938770000000     0.0591662  
H237     H      0.648810000000     0.237330000000     0.036030000000     0.0534033  
H238     H      0.709670000000     0.374720000000     0.008290000000     0.0707647  
H239     H      0.830770000000     0.219050000000     0.051420000000     0.0306123  
H240     H      0.764650000000     0.395760000000     0.893960000000     0.180287   
H241     H      0.329670000000     0.782580000000     0.039120000000     0.0468124  
H242     H      0.165530000000     0.782040000000     0.923610000000     0.0394821  
H243     H      0.283610000000     0.653120000000     0.083080000000     0.0284086  
H244     H      0.218430000000     0.674470000000     0.031160000000     0.0450522  
H245     H      0.174350000000     0.720000000000     0.983480000000     0.0453877  
H246     H      0.287040000000     0.832920000000     0.996280000000     0.0480978  
H247     H      0.395550000000     0.717790000000     0.035600000000     0.0414047  
H248     H      0.113370000000     0.782670000000     0.963730000000     0.0359605  
H249     H      0.253700000000     0.667930000000     0.974730000000     0.0571713  
H250     H      0.241460000000     0.837610000000     0.043860000000     0.0537641  
H251     H      0.280630000000     0.608320000000     0.034540000000     0.0365898  
H252     H      0.338220000000     0.753220000000     0.979790000000     0.0615141  
H253     H      0.162910000000     0.760380000000     0.035120000000     0.0569263  
H254     H      0.222670000000     0.896090000000     0.982880000000     0.0650809  
H255     H      0.351790000000     0.714760000000     0.085120000000     0.0308034  
H256     H      0.270690000000     0.812550000000     0.866450000000     0.179577   
H257     H      0.313880000000     0.218090000000     0.023760000000     0.0543773  
H258     H      0.140670000000     0.224270000000     0.048730000000     0.0492215  
H259     H      0.262390000000     0.352010000000     0.952850000000     0.0395799  
H260     H      0.204050000000     0.337140000000     0.021980000000     0.0499043  
H261     H      0.154920000000     0.290240000000     0.988400000000     0.0460213  
H262     H      0.274530000000     0.182850000000     0.967690000000     0.0438726  
H263     H      0.377750000000     0.278740000000     0.000830000000     0.0386802  
H264     H      0.097120000000     0.221950000000     0.999260000000     0.0420916  
H265     H      0.252780000000     0.332570000000     0.064750000000     0.0603774  
H266     H      0.223730000000     0.189140000000     0.928610000000     0.0462715  
H267     H      0.270050000000     0.395590000000     0.001970000000     0.0473487  
H268     H      0.313830000000     0.268340000000     0.064430000000     0.0621021  
H269     H      0.158410000000     0.248170000000     0.938860000000     0.0517572  
H270     H      0.211150000000     0.117100000000     0.975810000000     0.0631407  
H271     H      0.332770000000     0.274950000000     0.952300000000     0.0297101  
H272     H      0.273020000000     0.100890000000     0.088080000000     0.176644   
H273     H      0.816940000000     0.976170000000     0.714160000000     0.0541358  
H274     H      0.639930000000     0.963570000000     0.727440000000     0.0438844  
H275     H      0.767260000000     0.042840000000     0.853030000000     0.0282555  
H276     H      0.705370000000     0.978860000000     0.832020000000     0.0471319  
H277     H      0.662750000000     0.025930000000     0.789810000000     0.0439821  
H278     H      0.779380000000     0.031860000000     0.677350000000     0.0447617  
H279     H      0.881030000000     0.990980000000     0.777270000000     0.0371474  
H280     H      0.601590000000     0.016760000000     0.722540000000     0.0369117  
H281     H      0.751630000000     0.934070000000     0.825940000000     0.0593176  
H282     H      0.731450000000     0.074140000000     0.683440000000     0.0469124  
H283     H      0.772230000000     0.990590000000     0.893100000000     0.0361269  
H284     H      0.813110000000     0.933490000000     0.762670000000     0.0623359  
H285     H      0.668580000000     0.071640000000     0.744260000000     0.0517051  
H286     H      0.713170000000     0.025270000000     0.613380000000     0.0615904  
H287     H      0.840200000000     0.042770000000     0.774310000000     0.0292946  
H288     H      0.771320000000     0.910640000000     0.602380000000     0.178387   
H289     H      0.162670000000     0.031630000000     0.702870000000     0.0532021  
H290     H      0.342420000000     0.048270000000     0.717360000000     0.0435975  
H291     H      0.221240000000     0.978110000000     0.844100000000     0.0496072  
H292     H      0.277280000000     0.045500000000     0.816270000000     0.0487915  
H293     H      0.316940000000     0.989160000000     0.782770000000     0.0475963  
H294     H      0.204720000000     0.979350000000     0.666160000000     0.0471079  
H295     H      0.100910000000     0.021950000000     0.770410000000     0.0372201  
H296     H      0.380920000000     0.994950000000     0.717880000000     0.0368696  
H297     H      0.227100000000     0.085500000000     0.809110000000     0.0555997  
H298     H      0.250980000000     0.936000000000     0.676980000000     0.0481596  
H299     H      0.213340000000     0.032590000000     0.880620000000     0.0433441  
H300     H      0.165990000000     0.078680000000     0.747190000000     0.0578257  
H301     H      0.312420000000     0.941470000000     0.739260000000     0.0544791  
H302     H      0.273670000000     0.979790000000     0.604730000000     0.0609777  
H303     H      0.141440000000     0.970110000000     0.767170000000     0.0328544  
H304     H      0.212020000000     0.092900000000     0.588720000000     0.176958   
H305     H      0.331900000000     0.970650000000     0.204830000000     0.0523515  
H306     H      0.155120000000     0.946280000000     0.216820000000     0.0508526  
H307     H      0.272390000000     0.028170000000     0.342650000000     0.0325407  
H308     H      0.216010000000     0.959310000000     0.317840000000     0.0479342  
H309     H      0.174530000000     0.010850000000     0.279810000000     0.0457759  
H310     H      0.288620000000     0.019130000000     0.164710000000     0.046072   
H311     H      0.392620000000     0.983840000000     0.271990000000     0.0373166  
H312     H      0.112530000000     0.996370000000     0.215230000000     0.0428277  
H313     H      0.266290000000     0.919220000000     0.312380000000     0.0566176  
H314     H      0.240640000000     0.061130000000     0.172680000000     0.0501817  
H315     H      0.278600000000     0.975440000000     0.382090000000     0.0367316  
H316     H      0.328580000000     0.924640000000     0.250310000000     0.0576383  
H317     H      0.177590000000     0.055850000000     0.233410000000     0.0561267  
H318     H      0.220630000000     0.013400000000     0.102320000000     0.0691207  
H319     H      0.350240000000     0.034170000000     0.268460000000     0.0318154  
H320     H      0.286030000000     0.902160000000     0.090900000000     0.175532   
H321     H      0.717540000000     0.952420000000     0.176280000000     0.0514084  
H322     H      0.724700000000     0.942580000000     0.355510000000     0.0458472  
H323     H      0.852270000000     0.025840000000     0.227150000000     0.0315491  
H324     H      0.833960000000     0.961060000000     0.289020000000     0.04668    
H325     H      0.788350000000     0.003050000000     0.332960000000     0.0442328  
H326     H      0.678270000000     0.006600000000     0.213360000000     0.0436698  
H327     H      0.780120000000     0.970010000000     0.112190000000     0.0351126  
H328     H      0.720950000000     0.996360000000     0.393220000000     0.03751    
H329     H      0.830220000000     0.915950000000     0.242640000000     0.053843   
H330     H      0.684100000000     0.050870000000     0.259740000000     0.0450243  
H331     H      0.894350000000     0.975360000000     0.222080000000     0.0369633  
H332     H      0.767830000000     0.912250000000     0.180520000000     0.0554025  
H333     H      0.744220000000     0.049720000000     0.324870000000     0.0501921  
H334     H      0.613690000000     0.003130000000     0.278770000000     0.0604337  
H335     H      0.774000000000     0.021820000000     0.152820000000     0.0311893  
H336     H      0.603390000000     0.886160000000     0.225290000000     0.174374   
H337     H      0.959170000000     0.186800000000     0.722130000000     0.0553639  
H338     H      0.949200000000     0.360820000000     0.731230000000     0.0442409  
H339     H      0.033330000000     0.230470000000     0.859530000000     0.0316174  
H340     H      0.969730000000     0.293380000000     0.843860000000     0.0474412  
H341     H      0.007220000000     0.340460000000     0.797270000000     0.0444309  
H342     H      0.020580000000     0.220380000000     0.689170000000     0.04508    
H343     H      0.976640000000     0.120090000000     0.782030000000     0.0363555  
H344     H      0.002540000000     0.399100000000     0.727720000000     0.0375812  
H345     H      0.923390000000     0.248350000000     0.838300000000     0.0565733  
H346     H      0.062200000000     0.268980000000     0.695240000000     0.0491898  
H347     H      0.982750000000     0.224260000000     0.901630000000     0.0370418  
H348     H      0.919110000000     0.188830000000     0.773080000000     0.0586793  
H349     H      0.056510000000     0.333640000000     0.755290000000     0.052146   
H350     H      0.015580000000     0.283910000000     0.622750000000     0.0728432  
H351     H      0.028730000000     0.160470000000     0.777820000000     0.0317441  
H352     H      0.901350000000     0.224740000000     0.610850000000     0.176537   
H353     H      0.008310000000     0.842560000000     0.696610000000     0.0508948  
H354     H      0.035880000000     0.659470000000     0.714770000000     0.0437505  
H355     H      0.960960000000     0.776910000000     0.834040000000     0.0486808  
H356     H      0.031410000000     0.724270000000     0.804940000000     0.0480611  
H357     H      0.970970000000     0.687120000000     0.774160000000     0.0455263  
H358     H      0.971540000000     0.793410000000     0.651680000000     0.0464809  
H359     H      0.997430000000     0.900680000000     0.766120000000     0.0370051  
H360     H      0.983100000000     0.620180000000     0.713150000000     0.0367121  
H361     H      0.068850000000     0.776680000000     0.799700000000     0.057267   
H362     H      0.926370000000     0.748320000000     0.661220000000     0.0472997  
H363     H      0.014700000000     0.783810000000     0.872060000000     0.0408189  
H364     H      0.057840000000     0.840060000000     0.738690000000     0.0576093  
H365     H      0.927200000000     0.688830000000     0.726400000000     0.0531871  
H366     H      0.975760000000     0.721910000000     0.594190000000     0.0622604  
H367     H      0.948480000000     0.856610000000     0.763700000000     0.0358541  
H368     H      0.090800000000     0.779840000000     0.581450000000     0.176174   
H369     H      0.042080000000     0.765510000000     0.308250000000     0.0538032  
H370     H      0.062860000000     0.767910000000     0.131200000000     0.0475531  
H371     H      0.957270000000     0.637800000000     0.262290000000     0.0273345  
H372     H      0.022320000000     0.645430000000     0.200550000000     0.0450473  
H373     H      0.011190000000     0.698990000000     0.147810000000     0.0441153  
H374     H      0.985850000000     0.802780000000     0.270610000000     0.0440483  
H375     H      0.015250000000     0.708720000000     0.374460000000     0.046156   
H376     H      0.011220000000     0.768770000000     0.090510000000     0.0360449  
H377     H      0.069290000000     0.645950000000     0.246210000000     0.0568828  
H378     H      0.945420000000     0.796460000000     0.220620000000     0.0447002  
H379     H      0.002210000000     0.590110000000     0.269080000000     0.0364049  
H380     H      0.077440000000     0.711480000000     0.308320000000     0.0643614  
H381     H      0.956540000000     0.735010000000     0.152540000000     0.0478885  
H382     H      0.990810000000     0.869980000000     0.209110000000     0.059655   
H383     H      0.966350000000     0.715910000000     0.330280000000     0.0288552  
H384     H      0.104950000000     0.884900000000     0.267080000000     0.17914    
H385     H      0.024460000000     0.304900000000     0.224670000000     0.0544534  
H386     H      0.041760000000     0.131760000000     0.229640000000     0.0453964  
H387     H      0.944680000000     0.263860000000     0.357420000000     0.0378908  
H388     H      0.006840000000     0.199230000000     0.347090000000     0.0477066  
H389     H      0.983970000000     0.148210000000     0.295800000000     0.0447478  
H390     H      0.965320000000     0.269510000000     0.189510000000     0.0446241  
H391     H      0.005000000000     0.372030000000     0.283180000000     0.0366986  
H392     H      0.990310000000     0.091080000000     0.225810000000     0.0374856  
H393     H      0.055260000000     0.242680000000     0.343620000000     0.0550934  
H394     H      0.925290000000     0.219480000000     0.194480000000     0.0478667  
H395     H      0.992060000000     0.268180000000     0.403360000000     0.0452672  
H396     H      0.063030000000     0.303000000000     0.276810000000     0.0581714  
H397     H      0.933360000000     0.153400000000     0.254740000000     0.0512426  
H398     H      0.973050000000     0.207300000000     0.122250000000     0.0622224  
H399     H      0.953300000000     0.331130000000     0.278620000000     0.0328882  
H400     H      0.085710000000     0.269210000000     0.111510000000     0.178631   
N1       N      0.490040000000     0.324520000000     0.151510000000    -0.158111   
N2       N      0.496310000000     0.148130000000     0.327050000000    -0.173294   
N3       N      0.508200000000     0.646390000000     0.170770000000    -0.158805   
N4       N      0.505410000000     0.825220000000     0.345020000000    -0.171826   
N5       N      0.496790000000     0.666370000000     0.846530000000    -0.159203   
N6       N      0.494630000000     0.842540000000     0.668750000000    -0.171367   
N7       N      0.490150000000     0.343590000000     0.827460000000    -0.158027   
N8       N      0.492650000000     0.165630000000     0.650940000000    -0.172614   
N9       N      0.833470000000     0.335270000000     0.505720000000    -0.157689   
N10      N      0.656920000000     0.158400000000     0.498350000000    -0.172665   
N11      N      0.659320000000     0.835450000000     0.506000000000    -0.158298   
N12      N      0.836240000000     0.658410000000     0.490500000000    -0.173202   
N13      N      0.156500000000     0.332890000000     0.507140000000    -0.159417   
N14      N      0.333900000000     0.155450000000     0.486940000000    -0.172082   
N15      N      0.159160000000     0.655770000000     0.492820000000    -0.158262   
N16      N      0.336200000000     0.832700000000     0.502950000000    -0.172873   
N17      N      0.660450000000     0.481210000000     0.157950000000    -0.158354   
N18      N      0.836540000000     0.483350000000     0.334410000000    -0.173107   
N19      N      0.337280000000     0.490060000000     0.164440000000    -0.158257   
N20      N      0.160400000000     0.487280000000     0.338930000000    -0.172807   
N21      N      0.331160000000     0.512860000000     0.840460000000    -0.158371   
N22      N      0.155520000000     0.503430000000     0.663400000000    -0.172315   
N23      N      0.654610000000     0.501090000000     0.834020000000    -0.158045   
N24      N      0.832240000000     0.507660000000     0.658320000000    -0.173066   
N25      N      0.842740000000     0.829240000000     0.984710000000    -0.162027   
N26      N      0.663220000000     0.648750000000     0.015960000000    -0.173985   
N27      N      0.650760000000     0.328750000000     0.982230000000    -0.157785   
N28      N      0.829560000000     0.149720000000     0.015220000000    -0.173727   
N29      N      0.164660000000     0.843180000000     0.972270000000    -0.161106   
N30      N      0.341490000000     0.659620000000     0.031250000000    -0.172467   
N31      N      0.152180000000     0.164160000000     0.999790000000    -0.158937   
N32      N      0.327740000000     0.340710000000     0.994500000000    -0.171983   
N33      N      0.654610000000     0.006760000000     0.663470000000    -0.159287   
N34      N      0.830680000000     0.999320000000     0.839030000000    -0.173289   
N35      N      0.330550000000     0.000710000000     0.655930000000    -0.158817   
N36      N      0.154070000000     0.015620000000     0.829800000000    -0.170181   
N37      N      0.163920000000     0.992380000000     0.153740000000    -0.156727   
N38      N      0.338960000000     0.988620000000     0.331310000000    -0.172766   
N39      N      0.662410000000     0.987260000000     0.339370000000    -0.159037   
N40      N      0.840620000000     0.982050000000     0.163130000000    -0.172914   
N41      N      0.995610000000     0.344180000000     0.670090000000    -0.15834    
N42      N      0.988730000000     0.167980000000     0.845050000000    -0.173336   
N43      N      0.992780000000     0.667640000000     0.649460000000    -0.159054   
N44      N      0.997520000000     0.845250000000     0.823800000000    -0.169438   
N45      N      0.012080000000     0.825060000000     0.147300000000    -0.159676   
N46      N      0.002110000000     0.646550000000     0.325940000000    -0.172209   
N47      N      0.994470000000     0.146970000000     0.168860000000    -0.159366   
N48      N      0.992330000000     0.324610000000     0.346480000000    -0.171654   
O1       O      0.993130000000     0.130080000000     0.085860000000    -0.373165   
O2       O      0.008010000000     0.852320000000     0.067110000000    -0.377733   
O3       O      0.921460000000     0.985520000000     0.138950000000    -0.376609   
O4       O      0.081990000000     0.990170000000     0.133790000000    -0.372247   
O5       O      0.139690000000     0.996390000000     0.072550000000    -0.370241   
O6       O      0.860360000000     0.985780000000     0.080830000000    -0.37774    
O7       O      0.005670000000     0.907410000000     0.130900000000    -0.373106   
O8       O      0.998060000000     0.067210000000     0.141700000000    -0.375634   
O9       O      0.051020000000     0.945590000000     0.041600000000    -0.507105   
O10      O      0.947220000000     0.040610000000     0.051010000000    -0.509342   
O11      O      0.951060000000     0.941030000000     0.044600000000    -0.654264   
O12      O      0.046850000000     0.045030000000     0.048280000000    -0.65448    
O13      O      0.000270000000     0.862530000000     0.906610000000    -0.371126   
O14      O      0.990760000000     0.140690000000     0.925130000000    -0.378452   
O15      O      0.861050000000     0.910840000000     0.993810000000    -0.378965   
O16      O      0.140220000000     0.922830000000     0.984230000000    -0.370376   
O17      O      0.133450000000     0.082250000000     0.996130000000    -0.373109   
O18      O      0.854930000000     0.069930000000     0.008280000000    -0.378597   
O19      O      0.912670000000     0.000860000000     0.858530000000    -0.377182   
O20      O      0.073250000000     0.009340000000     0.853540000000    -0.37638    
O21      O      0.855170000000     0.995770000000     0.920070000000    -0.377544   
O22      O      0.134190000000     0.009750000000     0.911890000000    -0.370968   
O23      O      0.923030000000     0.854650000000     0.985890000000    -0.374337   
O24      O      0.911640000000     0.131940000000     0.008460000000    -0.378258   
O25      O      0.071730000000     0.138920000000     0.002610000000    -0.373392   
O26      O      0.083030000000     0.861350000000     0.981420000000    -0.378422   
O27      O      0.995150000000     0.925230000000     0.850580000000    -0.375439   
O28      O      0.990550000000     0.085440000000     0.861440000000    -0.378942   
O29      O      0.043490000000     0.051270000000     0.948000000000    -0.508397   
O30      O      0.948100000000     0.948000000000     0.944320000000    -0.506901   
O31      O      0.943770000000     0.047250000000     0.950740000000    -0.652115   
O32      O      0.047710000000     0.952340000000     0.941180000000    -0.655914   
O33      O      0.993460000000     0.351740000000     0.426620000000    -0.373357   
O34      O      0.000490000000     0.629900000000     0.409040000000    -0.374345   
O35      O      0.917740000000     0.486260000000     0.357190000000    -0.3771     
O36      O      0.078530000000     0.487800000000     0.359420000000    -0.376938   
O37      O      0.137000000000     0.490890000000     0.420170000000    -0.377557   
O38      O      0.857570000000     0.489910000000     0.416180000000    -0.377874   
O39      O      0.999230000000     0.566930000000     0.353130000000    -0.379223   
O40      O      0.996200000000     0.407080000000     0.363090000000    -0.377605   
O41      O      0.047340000000     0.541740000000     0.445950000000    -0.507121   
O42      O      0.946650000000     0.443420000000     0.450840000000    -0.507566   
O43      O      0.947070000000     0.542800000000     0.444250000000    -0.652153   
O44      O      0.046490000000     0.442490000000     0.452010000000    -0.653129   
O45      O      0.994820000000     0.639890000000     0.569580000000    -0.373126   
O46      O      0.996120000000     0.361720000000     0.587350000000    -0.371305   
O47      O      0.857140000000     0.576860000000     0.493390000000    -0.377907   
O48      O      0.136680000000     0.574570000000     0.495660000000    -0.375798   
O49      O      0.135280000000     0.414440000000     0.504820000000    -0.376683   
O50      O      0.855880000000     0.416430000000     0.500890000000    -0.37485    
O51      O      0.913930000000     0.505160000000     0.637520000000    -0.377814   
O52      O      0.074460000000     0.502960000000     0.640060000000    -0.377082   
O53      O      0.855280000000     0.502360000000     0.576970000000    -0.377685   
O54      O      0.134830000000     0.498600000000     0.581320000000    -0.376847   
O55      O      0.917310000000     0.635440000000     0.490030000000    -0.377166   
O56      O      0.915010000000     0.356900000000     0.506150000000    -0.369127   
O57      O      0.075250000000     0.355680000000     0.506970000000    -0.372067   
O58      O      0.077630000000     0.634240000000     0.491570000000    -0.369934   
O59      O      0.993890000000     0.584780000000     0.633400000000    -0.37586    
O60      O      0.994560000000     0.424300000000     0.643730000000    -0.376452   
O61      O      0.045010000000     0.448660000000     0.552500000000    -0.507127   
O62      O      0.946220000000     0.548700000000     0.544530000000    -0.508156   
O63      O      0.945130000000     0.449320000000     0.551100000000    -0.653243   
O64      O      0.045870000000     0.548160000000     0.546260000000    -0.653042   
O65      O      0.638340000000     0.991510000000     0.420580000000    -0.376144   
O66      O      0.358960000000     0.990900000000     0.413630000000    -0.377159   
O67      O      0.502090000000     0.907740000000     0.361980000000    -0.373504   
O68      O      0.497750000000     0.068050000000     0.353130000000    -0.376681   
O69      O      0.496770000000     0.130340000000     0.409830000000    -0.379331   
O70      O      0.501040000000     0.851930000000     0.425170000000    -0.376924   
O71      O      0.419850000000     0.988950000000     0.355290000000    -0.376958   
O72      O      0.580390000000     0.988640000000     0.359340000000    -0.373066   
O73      O      0.447600000000     0.042000000000     0.443840000000    -0.507561   
O74      O      0.547880000000     0.943660000000     0.451700000000    -0.507657   
O75      O      0.448190000000     0.942480000000     0.448940000000    -0.652432   
O76      O      0.547580000000     0.043210000000     0.445900000000    -0.652596   
O77      O      0.354830000000     0.997000000000     0.574850000000    -0.3733     
O78      O      0.634170000000     0.002040000000     0.581450000000    -0.37264    
O79      O      0.417370000000     0.855480000000     0.503850000000    -0.377769   
O80      O      0.415370000000     0.133920000000     0.488470000000    -0.377279   
O81      O      0.575790000000     0.135560000000     0.494360000000    -0.377205   
O82      O      0.577790000000     0.856940000000     0.505370000000    -0.371582   
O83      O      0.493840000000     0.922690000000     0.642620000000    -0.376624   
O84      O      0.493720000000     0.083080000000     0.633830000000    -0.37627    
O85      O      0.495450000000     0.860400000000     0.585920000000    -0.374306   
O86      O      0.494140000000     0.138920000000     0.570660000000    -0.377738   
O87      O      0.357370000000     0.914120000000     0.498920000000    -0.376972   
O88      O      0.636890000000     0.916670000000     0.504100000000    -0.372406   
O89      O      0.635780000000     0.076850000000     0.498770000000    -0.376479   
O90      O      0.356180000000     0.074290000000     0.490740000000    -0.373974   
O91      O      0.412680000000     0.001340000000     0.636130000000    -0.375998   
O92      O      0.573520000000     0.003970000000     0.640060000000    -0.376099   
O93      O      0.544780000000     0.048090000000     0.546400000000    -0.507987   
O94      O      0.445750000000     0.947940000000     0.549510000000    -0.508247   
O95      O      0.545820000000     0.948750000000     0.551920000000    -0.65299    
O96      O      0.445090000000     0.047300000000     0.544100000000    -0.652275   
O97      O      0.409960000000     0.359240000000     0.993560000000    -0.377344   
O98      O      0.421060000000     0.636930000000     0.015610000000    -0.375051   
O99      O      0.357820000000     0.493480000000     0.082290000000    -0.373781   
O100     O      0.354860000000     0.507590000000     0.921660000000    -0.373859   
O101     O      0.413000000000     0.507330000000     0.860490000000    -0.376036   
O102     O      0.418280000000     0.489280000000     0.140920000000    -0.370581   
O103     O      0.359550000000     0.579670000000     0.012950000000    -0.3784     
O104     O      0.352990000000     0.420870000000     0.997570000000    -0.374556   
O105     O      0.446540000000     0.550270000000     0.952760000000    -0.507422   
O106     O      0.444890000000     0.444400000000     0.047160000000    -0.508453   
O107     O      0.449110000000     0.543390000000     0.053270000000    -0.657047   
O108     O      0.442920000000     0.450450000000     0.946760000000    -0.65494    
O109     O      0.581110000000     0.631230000000     0.008760000000    -0.378453   
O110     O      0.570260000000     0.353490000000     0.986000000000    -0.372679   
O111     O      0.502580000000     0.566520000000     0.144220000000    -0.371764   
O112     O      0.495750000000     0.583920000000     0.863800000000    -0.376195   
O113     O      0.492520000000     0.423710000000     0.853970000000    -0.37098    
O114     O      0.493370000000     0.406720000000     0.134100000000    -0.370395   
O115     O      0.636770000000     0.485330000000     0.076700000000    -0.37224    
O116     O      0.633830000000     0.495870000000     0.916050000000    -0.372889   
O117     O      0.578580000000     0.484320000000     0.137720000000    -0.373468   
O118     O      0.573500000000     0.501060000000     0.857340000000    -0.372441   
O119     O      0.504950000000     0.629150000000     0.087910000000    -0.373831   
O120     O      0.491410000000     0.350910000000     0.070930000000    -0.376192   
O121     O      0.489350000000     0.361090000000     0.910260000000    -0.373314   
O122     O      0.497270000000     0.639660000000     0.927050000000    -0.375473   
O123     O      0.637850000000     0.569300000000     0.006210000000    -0.377745   
O124     O      0.632010000000     0.410300000000     0.990580000000    -0.369162   
O125     O      0.542510000000     0.446890000000     0.945070000000    -0.506696   
O126     O      0.548050000000     0.539860000000     0.050970000000    -0.509995   
O127     O      0.544730000000     0.440140000000     0.045360000000    -0.655886   
O128     O      0.546750000000     0.546420000000     0.950980000000    -0.653794   
O129     O      0.553590000000     0.377240000000     0.257410000000    -0.343411   
O130     O      0.575440000000     0.314370000000     0.209250000000    -0.24492    
O131     O      0.418000000000     0.663270000000     0.224340000000    -0.342245   
O132     O      0.434150000000     0.591740000000     0.261180000000    -0.255811   
O133     O      0.424020000000     0.763010000000     0.904500000000    -0.347713   
O134     O      0.408980000000     0.719560000000     0.836210000000    -0.247391   
O135     O      0.546550000000     0.231950000000     0.878720000000    -0.348169   
O136     O      0.574620000000     0.285940000000     0.823420000000    -0.237001   
O137     O      0.889560000000     0.226070000000     0.449540000000    -0.345006   
O138     O      0.830830000000     0.276210000000     0.421660000000    -0.247956   
O139     O      0.602030000000     0.738910000000     0.575030000000    -0.34669    
O140     O      0.675630000000     0.772230000000     0.589490000000    -0.2465     
O141     O      0.101450000000     0.237500000000     0.579760000000    -0.342858   
O142     O      0.175880000000     0.270360000000     0.590460000000    -0.248788   
O143     O      0.105780000000     0.755280000000     0.421920000000    -0.34455    
O144     O      0.174980000000     0.713710000000     0.407150000000    -0.248065   
O145     O      0.758150000000     0.412330000000     0.098180000000    -0.345453   
O146     O      0.716080000000     0.394010000000     0.166590000000    -0.244722   
O147     O      0.391710000000     0.419410000000     0.265640000000    -0.342088   
O148     O      0.327550000000     0.402210000000     0.217170000000    -0.2484     
O149     O      0.273990000000     0.424480000000     0.828970000000    -0.342463   
O150     O      0.235920000000     0.447830000000     0.898200000000    -0.259357   
O151     O      0.600590000000     0.439640000000     0.726610000000    -0.347497   
O152     O      0.664000000000     0.417870000000     0.774200000000    -0.236808   
O153     O      0.804850000000     0.751320000000     0.899990000000    -0.345394   
O154     O      0.877720000000     0.785980000000     0.885220000000    -0.249922   
O155     O      0.748740000000     0.390410000000     0.925590000000    -0.340377   
O156     O      0.727960000000     0.313410000000     0.906710000000    -0.242332   
O157     O      0.259350000000     0.814840000000     0.900370000000    -0.344898   
O158     O      0.226710000000     0.889160000000     0.888990000000    -0.252725   
O159     O      0.258360000000     0.106500000000     0.055880000000    -0.344321   
O160     O      0.216780000000     0.172330000000     0.081740000000    -0.245447   
O161     O      0.758510000000     0.943560000000     0.606920000000    -0.347279   
O162     O      0.712240000000     0.921600000000     0.671410000000    -0.244994   
O163     O      0.224900000000     0.060360000000     0.595330000000    -0.348427   
O164     O      0.277760000000     0.087730000000     0.652150000000    -0.249961   
O165     O      0.271790000000     0.934390000000     0.096050000000    -0.344856   
O166     O      0.220980000000     0.907660000000     0.155020000000    -0.241397   
O167     O      0.607660000000     0.919550000000     0.236990000000    -0.348382   
O168     O      0.671190000000     0.899490000000     0.285190000000    -0.250326   
O169     O      0.934180000000     0.237700000000     0.616000000000    -0.34312    
O170     O      0.909750000000     0.287630000000     0.676650000000    -0.250112   
O171     O      0.057680000000     0.767600000000     0.586470000000    -0.345698   
O172     O      0.079450000000     0.722510000000     0.651810000000    -0.251237   
O173     O      0.072430000000     0.879720000000     0.253290000000    -0.345928   
O174     O      0.096840000000     0.815600000000     0.208170000000    -0.24173    
O175     O      0.053330000000     0.254960000000     0.115980000000    -0.347748   
O176     O      0.078050000000     0.207320000000     0.178350000000    -0.24546    
Zr1      Zr     0.000480000000     0.989900000000     0.095840000000     1.43044    
Zr2      Zr     0.001590000000     0.897860000000     0.989480000000     1.43279    
Zr3      Zr     0.993350000000     0.095100000000     0.002770000000     1.43227    
Zr4      Zr     0.898360000000     0.992110000000     0.999230000000     1.42839    
Zr5      Zr     0.096530000000     0.000680000000     0.993340000000     1.43734    
Zr6      Zr     0.994190000000     0.002810000000     0.896380000000     1.42838    
Zr7      Zr     0.997530000000     0.489560000000     0.398720000000     1.42636    
Zr8      Zr     0.997130000000     0.594410000000     0.492000000000     1.43246    
Zr9      Zr     0.995440000000     0.396920000000     0.504540000000     1.43613    
Zr10     Zr     0.896850000000     0.496350000000     0.497110000000     1.42726    
Zr11     Zr     0.095530000000     0.494860000000     0.500070000000     1.4278     
Zr12     Zr     0.994810000000     0.501880000000     0.598230000000     1.42669    
Zr13     Zr     0.499060000000     0.990180000000     0.397970000000     1.42757    
Zr14     Zr     0.397280000000     0.994490000000     0.495330000000     1.42819    
Zr15     Zr     0.595850000000     0.996400000000     0.500080000000     1.43067    
Zr16     Zr     0.497250000000     0.896610000000     0.503260000000     1.43105    
Zr17     Zr     0.495920000000     0.094280000000     0.492470000000     1.42805    
Zr18     Zr     0.494160000000     0.000650000000     0.597690000000     1.42715    
Zr19     Zr     0.396720000000     0.499010000000     0.001120000000     1.43458    
Zr20     Zr     0.499380000000     0.594180000000     0.005060000000     1.43169    
Zr21     Zr     0.491750000000     0.396420000000     0.993050000000     1.43297    
Zr22     Zr     0.497690000000     0.488980000000     0.098770000000     1.44015    
Zr23     Zr     0.493940000000     0.501480000000     0.899400000000     1.42746    
Zr24     Zr     0.594650000000     0.491430000000     0.997210000000     1.43681    


