data_structure

_audit_creation_method RASPA-1.0
_audit_creation_date 2023-5-25
_audit_author_name 'Poobodin Mano'

_cell_length_a    27.1459
_cell_length_b    27.1147
_cell_length_c    27.1435
_cell_angle_alpha 90
_cell_angle_beta  90
_cell_angle_gamma 90
_cell_volume      19979.1

_symmetry_cell_setting          triclinic
_symmetry_space_group_name_Hall 'P 1'
_symmetry_space_group_name_H-M  'P 1'
_symmetry_Int_Tables_number     1

_symmetry_equiv_pos_as_xyz 'x,y,z'

loop_
_atom_site_label
_atom_site_type_symbol
_atom_site_fract_x
_atom_site_fract_y
_atom_site_fract_z
_atom_site_charge
C1       C      0.991050000000     0.125050000000     0.119210000000     0.394158   
C2       C      0.000710000000     0.873380000000     0.126120000000     0.39682    
C3       C      0.870910000000     0.998650000000     0.122980000000     0.393202   
C4       C      0.122380000000     0.000540000000     0.122920000000     0.393035   
C5       C      0.999890000000     0.866580000000     0.874620000000     0.392416   
C6       C      0.993530000000     0.117900000000     0.867420000000     0.39177    
C7       C      0.873810000000     0.867040000000     0.000070000000     0.396018   
C8       C      0.125270000000     0.872930000000     0.003610000000     0.39507    
C9       C      0.119450000000     0.124670000000     0.993190000000     0.393374   
C10      C      0.867700000000     0.118480000000     0.993930000000     0.392155   
C11      C      0.871860000000     0.978360000000     0.872550000000     0.398396   
C12      C      0.122510000000     0.996360000000     0.871210000000     0.393889   
C13      C      0.992570000000     0.374260000000     0.367150000000     0.392837   
C14      C      0.003180000000     0.625880000000     0.374330000000     0.393953   
C15      C      0.871930000000     0.501160000000     0.368800000000     0.391936   
C16      C      0.123700000000     0.498980000000     0.372440000000     0.393809   
C17      C      0.996100000000     0.618780000000     0.625750000000     0.394772   
C18      C      0.992660000000     0.367220000000     0.618740000000     0.393995   
C19      C      0.874390000000     0.626700000000     0.500420000000     0.393944   
C20      C      0.126000000000     0.618240000000     0.500540000000     0.394758   
C21      C      0.117870000000     0.366810000000     0.495540000000     0.393148   
C22      C      0.866410000000     0.374860000000     0.488950000000     0.394251   
C23      C      0.868780000000     0.498810000000     0.620660000000     0.393451   
C24      C      0.119950000000     0.488520000000     0.623720000000     0.393669   
C25      C      0.621020000000     0.997840000000     0.369290000000     0.394684   
C26      C      0.620810000000     0.012570000000     0.620170000000     0.395043   
C27      C      0.616680000000     0.127330000000     0.488110000000     0.392902   
C28      C      0.625510000000     0.875670000000     0.501560000000     0.392305   
C29      C      0.369890000000     0.999540000000     0.621420000000     0.391343   
C30      C      0.369600000000     0.989130000000     0.369820000000     0.394075   
C31      C      0.490210000000     0.128190000000     0.615830000000     0.393816   
C32      C      0.502420000000     0.876690000000     0.626090000000     0.394047   
C33      C      0.499070000000     0.866480000000     0.374460000000     0.392843   
C34      C      0.492400000000     0.117780000000     0.364450000000     0.394373   
C35      C      0.365230000000     0.118540000000     0.491970000000     0.395243   
C36      C      0.373970000000     0.866950000000     0.498480000000     0.392521   
C37      C      0.367830000000     0.374040000000     0.990950000000     0.392296   
C38      C      0.619490000000     0.368290000000     0.990730000000     0.394316   
C39      C      0.490680000000     0.375920000000     0.865390000000     0.39281    
C40      C      0.497650000000     0.366600000000     0.116820000000     0.395345   
C41      C      0.625370000000     0.619830000000     0.998060000000     0.394713   
C42      C      0.373750000000     0.625720000000     0.003470000000     0.39353    
C43      C      0.620810000000     0.499030000000     0.868720000000     0.39477    
C44      C      0.623370000000     0.490800000000     0.120380000000     0.393718   
C45      C      0.371980000000     0.496850000000     0.123090000000     0.392442   
C46      C      0.369300000000     0.503030000000     0.871550000000     0.394541   
C47      C      0.499270000000     0.627460000000     0.874450000000     0.39244    
C48      C      0.498660000000     0.618080000000     0.126180000000     0.3949     
C49      C      0.491290000000     0.205600000000     0.338740000000     0.0106373  
C50      C      0.505000000000     0.277430000000     0.135850000000     0.0123773  
C51      C      0.501300000000     0.342080000000     0.204760000000     0.0545757  
C52      C      0.474460000000     0.242410000000     0.167890000000    -0.104571   
C53      C      0.525880000000     0.233520000000     0.304130000000    -0.10097    
C54      C      0.471860000000     0.304740000000     0.235670000000    -0.113672   
C55      C      0.511890000000     0.221190000000     0.251570000000     0.0191562  
C56      C      0.485790000000     0.252490000000     0.221550000000     0.0256637  
C57      C      0.485980000000     0.136820000000     0.275130000000     0.00959135 
C58      C      0.519630000000     0.166840000000     0.241050000000    -0.100931   
C59      C      0.506230000000     0.777200000000     0.355410000000     0.0100333  
C60      C      0.496160000000     0.705800000000     0.152010000000     0.0127921  
C61      C      0.494430000000     0.635850000000     0.215790000000     0.0541976  
C62      C      0.528030000000     0.735820000000     0.187470000000    -0.104571   
C63      C      0.475100000000     0.742640000000     0.323320000000    -0.101202   
C64      C      0.524210000000     0.669310000000     0.250790000000    -0.114019   
C65      C      0.486040000000     0.753310000000     0.269630000000     0.0196833  
C66      C      0.513490000000     0.723040000000     0.239720000000     0.0257208  
C67      C      0.503580000000     0.841150000000     0.286700000000     0.00999165 
C68      C      0.471920000000     0.805660000000     0.256410000000    -0.100971   
C69      C      0.496680000000     0.716950000000     0.855160000000     0.00996184 
C70      C      0.508420000000     0.789020000000     0.651620000000     0.0123421  
C71      C      0.510710000000     0.858590000000     0.715490000000     0.0534066  
C72      C      0.477290000000     0.758510000000     0.687290000000    -0.10401    
C73      C      0.529680000000     0.749960000000     0.823300000000    -0.101076   
C74      C      0.482090000000     0.824700000000     0.751110000000    -0.113172   
C75      C      0.518690000000     0.739730000000     0.769540000000     0.019551   
C76      C      0.492440000000     0.770940000000     0.739480000000     0.0249966  
C77      C      0.497150000000     0.652760000000     0.786580000000     0.00987532 
C78      C      0.530730000000     0.686760000000     0.756610000000    -0.100973   
C79      C      0.482920000000     0.357150000000     0.776160000000     0.0103625  
C80      C      0.491680000000     0.153610000000     0.703550000000     0.012491   
C81      C      0.493330000000     0.217880000000     0.634020000000     0.0542216  
C82      C      0.459910000000     0.188970000000     0.733790000000    -0.103805   
C83      C      0.513580000000     0.324680000000     0.741530000000    -0.101808   
C84      C      0.463840000000     0.252810000000     0.667860000000    -0.113106   
C85      C      0.501990000000     0.271030000000     0.752010000000     0.020061   
C86      C      0.474630000000     0.241310000000     0.721450000000     0.0248346  
C87      C      0.484510000000     0.288210000000     0.839840000000     0.0104774  
C88      C      0.515810000000     0.257510000000     0.804350000000    -0.101831   
C89      C      0.704580000000     0.152190000000     0.486690000000     0.0105382  
C90      C      0.777630000000     0.355740000000     0.478670000000     0.012271   
C91      C      0.842260000000     0.286870000000     0.481940000000     0.0545207  
C92      C      0.741880000000     0.322590000000     0.507120000000    -0.104406   
C93      C      0.733450000000     0.187060000000     0.453100000000    -0.101134   
C94      C      0.804240000000     0.254780000000     0.509180000000    -0.113472   
C95      C      0.721360000000     0.239610000000     0.467440000000     0.0193821  
C96      C      0.752340000000     0.269240000000     0.494410000000     0.0254546  
C97      C      0.636280000000     0.216680000000     0.491280000000     0.00954643 
C98      C      0.667390000000     0.250610000000     0.458470000000    -0.101112   
C99      C      0.714830000000     0.856320000000     0.499080000000     0.0100417  
C100     C      0.786680000000     0.651950000000     0.505890000000     0.0120907  
C101     C      0.856120000000     0.716020000000     0.508990000000     0.0531632  
C102     C      0.755710000000     0.688540000000     0.476220000000    -0.10372    
C103     C      0.748430000000     0.823900000000     0.530930000000    -0.101442   
C104     C      0.822080000000     0.752090000000     0.481190000000    -0.113109   
C105     C      0.737930000000     0.770260000000     0.519410000000     0.0201576  
C106     C      0.768540000000     0.740460000000     0.492170000000     0.0247176  
C107     C      0.650530000000     0.787670000000     0.500320000000     0.0104815  
C108     C      0.685360000000     0.757200000000     0.532560000000    -0.101633   
C109     C      0.137480000000     0.277450000000     0.499480000000     0.00971119 
C110     C      0.340130000000     0.206380000000     0.488140000000     0.0126414  
C111     C      0.275750000000     0.137000000000     0.487290000000     0.0544209  
C112     C      0.305270000000     0.236900000000     0.520150000000    -0.104028   
C113     C      0.169680000000     0.244390000000     0.466900000000    -0.101184   
C114     C      0.241200000000     0.171060000000     0.516930000000    -0.113448   
C115     C      0.223250000000     0.255020000000     0.478280000000     0.0196278  
C116     C      0.252850000000     0.224610000000     0.505870000000     0.0254811  
C117     C      0.205790000000     0.341980000000     0.498840000000     0.00996786 
C118     C      0.236100000000     0.307850000000     0.465720000000    -0.101346   
C119     C      0.354580000000     0.777540000000     0.494540000000     0.00960439 
C120     C      0.151230000000     0.706080000000     0.504500000000     0.0128897  
C121     C      0.215470000000     0.636600000000     0.505800000000     0.0552485  
C122     C      0.186450000000     0.736590000000     0.472830000000    -0.104385   
C123     C      0.322060000000     0.744020000000     0.526350000000    -0.101051   
C124     C      0.250330000000     0.670580000000     0.476430000000    -0.114183   
C125     C      0.268530000000     0.754690000000     0.514750000000     0.0193032  
C126     C      0.238780000000     0.724170000000     0.487390000000     0.0259952  
C127     C      0.286120000000     0.841920000000     0.495150000000     0.010063   
C128     C      0.255580000000     0.807420000000     0.527650000000    -0.101289   
C129     C      0.783690000000     0.496760000000     0.345660000000     0.00998708 
C130     C      0.711970000000     0.495950000000     0.141770000000     0.011853   
C131     C      0.645270000000     0.493720000000     0.209030000000     0.0548157  
C132     C      0.746100000000     0.467110000000     0.176200000000    -0.103875   
C133     C      0.751350000000     0.525930000000     0.309820000000    -0.101336   
C134     C      0.682380000000     0.466440000000     0.242230000000    -0.113678   
C135     C      0.763990000000     0.510640000000     0.257710000000     0.0200113  
C136     C      0.734550000000     0.481160000000     0.228880000000     0.0257019  
C137     C      0.851080000000     0.494800000000     0.280070000000     0.00996169 
C138     C      0.816870000000     0.523660000000     0.245620000000    -0.10181    
C139     C      0.350710000000     0.492840000000     0.211990000000     0.0104588  
C140     C      0.147310000000     0.507010000000     0.284490000000     0.0121077  
C141     C      0.212850000000     0.503740000000     0.352460000000     0.0538375  
C142     C      0.181440000000     0.476710000000     0.251400000000    -0.103854   
C143     C      0.318800000000     0.526150000000     0.244580000000    -0.101622   
C144     C      0.246480000000     0.475470000000     0.316420000000    -0.113177   
C145     C      0.265100000000     0.515910000000     0.233370000000     0.0199291  
C146     C      0.234370000000     0.489300000000     0.263640000000     0.0246451  
C147     C      0.283530000000     0.495580000000     0.146430000000     0.0104279  
C148     C      0.253220000000     0.528940000000     0.180430000000    -0.101622   
C149     C      0.208350000000     0.485470000000     0.647430000000     0.0104105  
C150     C      0.280490000000     0.508360000000     0.850350000000     0.0127087  
C151     C      0.346490000000     0.505930000000     0.782950000000     0.0548625  
C152     C      0.247950000000     0.474800000000     0.818800000000    -0.104273   
C153     C      0.237030000000     0.521020000000     0.680550000000    -0.101251   
C154     C      0.311240000000     0.474010000000     0.751930000000    -0.113277   
C155     C      0.225670000000     0.508820000000     0.733870000000     0.0189923  
C156     C      0.258070000000     0.485370000000     0.764950000000     0.025492   
C157     C      0.141340000000     0.481040000000     0.712500000000     0.00963483 
C158     C      0.171380000000     0.516220000000     0.744940000000    -0.101013   
C159     C      0.780180000000     0.505810000000     0.642280000000     0.00987981 
C160     C      0.708960000000     0.493840000000     0.845310000000     0.012128   
C161     C      0.640950000000     0.497680000000     0.779580000000     0.0546396  
C162     C      0.741580000000     0.525310000000     0.811790000000    -0.10396    
C163     C      0.747040000000     0.474060000000     0.675160000000    -0.101137   
C164     C      0.676740000000     0.527210000000     0.746830000000    -0.113572   
C165     C      0.758900000000     0.485280000000     0.728520000000     0.0198254  
C166     C      0.729460000000     0.513280000000     0.758750000000     0.0259508  
C167     C      0.846020000000     0.503260000000     0.709120000000     0.00957451 
C168     C      0.811570000000     0.471410000000     0.740470000000    -0.101191   
C169     C      0.853260000000     0.777920000000     0.996420000000     0.00686135 
C170     C      0.649900000000     0.707770000000     0.003250000000     0.016038   
C171     C      0.714710000000     0.638690000000     0.002710000000     0.0572972  
C172     C      0.685110000000     0.739520000000     0.972780000000    -0.106012   
C173     C      0.820080000000     0.744910000000     0.028030000000    -0.0998478  
C174     C      0.749260000000     0.673760000000     0.974330000000    -0.115172   
C175     C      0.766850000000     0.756350000000     0.015900000000     0.0205233  
C176     C      0.737430000000     0.726850000000     0.987120000000     0.0256027  
C177     C      0.785630000000     0.843330000000     0.996970000000     0.00658011 
C178     C      0.754460000000     0.809090000000     0.029160000000    -0.0997119  
C179     C      0.843240000000     0.206690000000     0.995290000000     0.00839145 
C180     C      0.639720000000     0.279430000000     0.982640000000     0.011693   
C181     C      0.707810000000     0.344830000000     0.987180000000     0.0527825  
C182     C      0.672030000000     0.244640000000     0.013140000000    -0.103657   
C183     C      0.808650000000     0.236400000000     0.962120000000    -0.100055   
C184     C      0.739240000000     0.307480000000     0.016160000000    -0.112445   
C185     C      0.755940000000     0.224140000000     0.975700000000     0.0172304  
C186     C      0.725620000000     0.255170000000     0.001840000000     0.0270398  
C187     C      0.778620000000     0.138680000000     0.998800000000     0.0080426  
C188     C      0.744990000000     0.170190000000     0.966100000000    -0.100378   
C189     C      0.285600000000     0.649630000000     0.005510000000     0.0121169  
C190     C      0.213940000000     0.852800000000     0.012840000000     0.0134438  
C191     C      0.148310000000     0.784730000000     0.011080000000     0.0568199  
C192     C      0.248730000000     0.818830000000     0.984220000000    -0.105158   
C193     C      0.256400000000     0.683840000000     0.039530000000    -0.102152   
C194     C      0.185560000000     0.751830000000     0.983740000000    -0.114788   
C195     C      0.268210000000     0.736600000000     0.025800000000     0.0214967  
C196     C      0.237720000000     0.765850000000     0.997900000000     0.024194   
C197     C      0.353360000000     0.714920000000     0.001890000000     0.0118445  
C198     C      0.321970000000     0.747820000000     0.035400000000    -0.102559   
C199     C      0.343560000000     0.285920000000     0.985770000000     0.00910701 
C200     C      0.139890000000     0.213760000000     0.997090000000     0.0106398  
C201     C      0.207810000000     0.147880000000     0.994390000000     0.0537385  
C202     C      0.172540000000     0.247490000000     0.965750000000    -0.103174   
C203     C      0.308740000000     0.255430000000     0.017980000000    -0.100431   
C204     C      0.239230000000     0.184240000000     0.964210000000    -0.112613   
C205     C      0.256120000000     0.267790000000     0.004050000000     0.0204916  
C206     C      0.226000000000     0.236880000000     0.977510000000     0.0234486  
C207     C      0.278920000000     0.353800000000     0.982900000000     0.00890367 
C208     C      0.244830000000     0.321550000000     0.014380000000    -0.100791   
C209     C      0.642920000000     0.031300000000     0.706900000000     0.0142947  
C210     C      0.850360000000     0.957750000000     0.786170000000     0.0150079  
C211     C      0.785170000000     0.957710000000     0.852030000000     0.0561623  
C212     C      0.817730000000     0.986710000000     0.750710000000    -0.103046   
C213     C      0.673290000000     0.998680000000     0.741210000000    -0.10118    
C214     C      0.749210000000     0.985640000000     0.818240000000    -0.112997   
C215     C      0.728160000000     0.997330000000     0.728360000000     0.0159151  
C216     C      0.762990000000     0.986130000000     0.763620000000     0.0229943  
C217     C      0.707670000000     0.030690000000     0.642460000000     0.0138628  
C218     C      0.741650000000     0.998350000000     0.673600000000    -0.100817   
C219     C      0.281300000000     0.002010000000     0.644210000000     0.0111399  
C220     C      0.211060000000     0.994480000000     0.848620000000     0.0109181  
C221     C      0.143590000000     0.992020000000     0.782350000000     0.0536586  
C222     C      0.242430000000     0.026150000000     0.814050000000    -0.103157   
C223     C      0.251020000000     0.969900000000     0.679410000000    -0.101754   
C224     C      0.177980000000     0.022200000000     0.748730000000    -0.112614   
C225     C      0.262670000000     0.984880000000     0.731920000000     0.018812   
C226     C      0.231320000000     0.011640000000     0.761370000000     0.0254905  
C227     C      0.348040000000     0.007990000000     0.709850000000     0.0112128  
C228     C      0.316430000000     0.975710000000     0.743690000000    -0.102135   
C229     C      0.210910000000     0.997210000000     0.144890000000     0.00850704 
C230     C      0.281200000000     0.993460000000     0.347720000000     0.0110217  
C231     C      0.348670000000     0.992360000000     0.281020000000     0.0536109  
C232     C      0.247600000000     0.965140000000     0.312400000000    -0.103412   
C233     C      0.243630000000     0.026640000000     0.180170000000    -0.101026   
C234     C      0.311890000000     0.965650000000     0.247030000000    -0.113068   
C235     C      0.231290000000     0.011630000000     0.232400000000     0.0213183  
C236     C      0.259750000000     0.980370000000     0.260240000000     0.024787   
C237     C      0.144170000000     0.995970000000     0.211460000000     0.00845893 
C238     C      0.178790000000     0.025390000000     0.244910000000    -0.101244   
C239     C      0.782160000000     0.001950000000     0.144650000000     0.0115169  
C240     C      0.709670000000     0.996840000000     0.347310000000     0.011301   
C241     C      0.642650000000     0.993320000000     0.280560000000     0.0535445  
C242     C      0.740860000000     0.028750000000     0.312870000000    -0.103548   
C243     C      0.751200000000     0.970230000000     0.179540000000    -0.102019   
C244     C      0.677150000000     0.023470000000     0.246980000000    -0.112743   
C245     C      0.762050000000     0.985830000000     0.231990000000     0.0193117  
C246     C      0.730450000000     0.013460000000     0.260320000000     0.0260674  
C247     C      0.848110000000     0.007850000000     0.211120000000     0.0110566  
C248     C      0.815540000000     0.976400000000     0.244870000000    -0.102057   
C249     C      0.990080000000     0.205960000000     0.842660000000     0.00786765 
C250     C      0.998390000000     0.278140000000     0.638710000000     0.0103211  
C251     C      0.995460000000     0.343630000000     0.706980000000     0.052733   
C252     C      0.968410000000     0.243530000000     0.671720000000    -0.103153   
C253     C      0.022220000000     0.235920000000     0.807320000000    -0.0998645  
C254     C      0.966600000000     0.306500000000     0.738740000000    -0.112569   
C255     C      0.007650000000     0.223390000000     0.754940000000     0.0205573  
C256     C      0.980680000000     0.254170000000     0.725070000000     0.0231647  
C257     C      0.986120000000     0.137660000000     0.778370000000     0.00881401 
C258     C      0.017570000000     0.169520000000     0.743860000000    -0.100578   
C259     C      0.004250000000     0.777360000000     0.854320000000     0.0128684  
C260     C      0.992890000000     0.706760000000     0.650700000000     0.00946736 
C261     C      0.990110000000     0.637510000000     0.715070000000     0.0512386  
C262     C      0.024560000000     0.737060000000     0.686120000000    -0.102353   
C263     C      0.971300000000     0.744940000000     0.821840000000    -0.102877   
C264     C      0.019900000000     0.671020000000     0.749970000000    -0.111944   
C265     C      0.982940000000     0.755680000000     0.768310000000     0.0197353  
C266     C      0.009710000000     0.724770000000     0.738430000000     0.0257379  
C267     C      0.004650000000     0.842290000000     0.786530000000     0.012924   
C268     C      0.971310000000     0.808820000000     0.755720000000    -0.102983   
C269     C      0.008640000000     0.650410000000     0.286390000000     0.0127996  
C270     C      0.997090000000     0.853250000000     0.215130000000     0.00961767 
C271     C      0.001350000000     0.785010000000     0.149490000000     0.0566968  
C272     C      0.029120000000     0.821360000000     0.248870000000    -0.103189   
C273     C      0.976370000000     0.685440000000     0.256280000000    -0.102425   
C274     C      0.031820000000     0.754260000000     0.186160000000    -0.114435   
C275     C      0.990520000000     0.737960000000     0.268890000000     0.0183459  
C276     C      0.017990000000     0.767700000000     0.238520000000     0.0271044  
C277     C      0.012040000000     0.714860000000     0.354460000000     0.0110024  
C278     C      0.980320000000     0.749100000000     0.322630000000    -0.102345   
C279     C      0.991110000000     0.286130000000     0.342420000000     0.0094762  
C280     C      0.981590000000     0.213890000000     0.138850000000     0.0107169  
C281     C      0.985000000000     0.148820000000     0.207310000000     0.0514805  
C282     C      0.010690000000     0.249230000000     0.171840000000    -0.101387   
C283     C      0.957240000000     0.257620000000     0.307490000000    -0.101593   
C284     C      0.012680000000     0.186580000000     0.239380000000    -0.110128   
C285     C      0.971560000000     0.269780000000     0.254970000000     0.0204013  
C286     C      0.998210000000     0.238690000000     0.225180000000     0.0221102  
C287     C      0.996860000000     0.354340000000     0.277990000000     0.00902275 
C288     C      0.963260000000     0.323950000000     0.244250000000    -0.101729   
H1       H      0.927790000000     0.925400000000     0.069880000000     0.209958   
H2       H      0.065330000000     0.070020000000     0.065630000000     0.208815   
H3       H      0.923920000000     0.062200000000     0.924160000000     0.207266   
H4       H      0.069220000000     0.924820000000     0.928660000000     0.209585   
H5       H      0.928610000000     0.571500000000     0.426850000000     0.207355   
H6       H      0.065410000000     0.425780000000     0.424700000000     0.208385   
H7       H      0.922160000000     0.426190000000     0.564020000000     0.207804   
H8       H      0.067740000000     0.563010000000     0.569930000000     0.209636   
H9       H      0.563040000000     0.073360000000     0.562100000000     0.211615   
H10      H      0.568330000000     0.926300000000     0.427510000000     0.209693   
H11      H      0.422500000000     0.062550000000     0.422290000000     0.211115   
H12      H      0.427440000000     0.926970000000     0.568890000000     0.207774   
H13      H      0.564560000000     0.427460000000     0.921970000000     0.210635   
H14      H      0.425000000000     0.425230000000     0.064590000000     0.208135   
H15      H      0.426760000000     0.571810000000     0.928680000000     0.209074   
H16      H      0.569070000000     0.563510000000     0.067990000000     0.210838   
H17      H      0.526760000000     0.273210000000     0.313180000000     0.0445322  
H18      H      0.544480000000     0.266920000000     0.138960000000     0.0311545  
H19      H      0.447090000000     0.143050000000     0.263810000000     0.0299819  
H20      H      0.513640000000     0.155170000000     0.202640000000     0.0422713  
H21      H      0.480800000000     0.204300000000     0.155330000000     0.0429982  
H22      H      0.473660000000     0.313440000000     0.275430000000     0.0471859  
H23      H      0.502720000000     0.213630000000     0.377220000000     0.0353036  
H24      H      0.494070000000     0.271440000000     0.096860000000     0.034116   
H25      H      0.558580000000     0.157100000000     0.249280000000     0.0506519  
H26      H      0.432190000000     0.309870000000     0.226720000000     0.0509753  
H27      H      0.494060000000     0.097080000000     0.269310000000     0.036673   
H28      H      0.564180000000     0.220640000000     0.311020000000     0.0520541  
H29      H      0.434720000000     0.249680000000     0.161080000000     0.0496476  
H30      H      0.484630000000     0.378810000000     0.212070000000     0.0273627  
H31      H      0.453230000000     0.220020000000     0.333910000000     0.0280866  
H32      H      0.480850000000     0.704240000000     0.335270000000     0.0437448  
H33      H      0.457340000000     0.718560000000     0.155080000000     0.0309839  
H34      H      0.542550000000     0.837760000000     0.274500000000     0.0296065  
H35      H      0.473840000000     0.814870000000     0.216840000000     0.0426032  
H36      H      0.526670000000     0.775410000000     0.178120000000     0.0433732  
H37      H      0.519300000000     0.657670000000     0.289450000000     0.0478732  
H38      H      0.495560000000     0.771180000000     0.394480000000     0.0350599  
H39      H      0.508640000000     0.714070000000     0.113900000000     0.0341074  
H40      H      0.432640000000     0.811680000000     0.266440000000     0.0514753  
H41      H      0.564020000000     0.662640000000     0.243630000000     0.0531204  
H42      H      0.491400000000     0.879360000000     0.278290000000     0.0361983  
H43      H      0.435500000000     0.750260000000     0.330560000000     0.0518163  
H44      H      0.567200000000     0.725260000000     0.181650000000     0.0511224  
H45      H      0.509440000000     0.598000000000     0.220550000000     0.0296663  
H46      H      0.545620000000     0.766520000000     0.351730000000     0.0280137  
H47      H      0.525790000000     0.788640000000     0.835130000000     0.0432711  
H48      H      0.547460000000     0.776890000000     0.654430000000     0.0313509  
H49      H      0.458520000000     0.657780000000     0.773860000000     0.0296006  
H50      H      0.529000000000     0.677500000000     0.717060000000     0.0425939  
H51      H      0.478890000000     0.719080000000     0.677400000000     0.0432181  
H52      H      0.488200000000     0.836170000000     0.789630000000     0.0467315  
H53      H      0.507250000000     0.722560000000     0.894310000000     0.0346853  
H54      H      0.495810000000     0.780530000000     0.613610000000     0.0338382  
H55      H      0.569570000000     0.679060000000     0.767180000000     0.0512462  
H56      H      0.442070000000     0.831300000000     0.745180000000     0.0500747  
H57      H      0.507800000000     0.614030000000     0.778450000000     0.036137   
H58      H      0.568810000000     0.740460000000     0.830900000000     0.0514376  
H59      H      0.437950000000     0.768810000000     0.682150000000     0.049817   
H60      H      0.495770000000     0.896370000000     0.720950000000     0.0273366  
H61      H      0.457870000000     0.729480000000     0.851120000000     0.0275913  
H62      H      0.507950000000     0.336830000000     0.703200000000     0.0444356  
H63      H      0.530500000000     0.156400000000     0.716340000000     0.0295655  
H64      H      0.445370000000     0.276600000000     0.836300000000     0.028855   
H65      H      0.513290000000     0.217950000000     0.813530000000     0.0422946  
H66      H      0.461240000000     0.179250000000     0.773250000000     0.0425024  
H67      H      0.468860000000     0.291590000000     0.656540000000     0.047062   
H68      H      0.494060000000     0.396130000000     0.770190000000     0.0361884  
H69      H      0.478990000000     0.115460000000     0.711500000000     0.03463    
H70      H      0.555210000000     0.266990000000     0.810440000000     0.0511089  
H71      H      0.423980000000     0.245890000000     0.661260000000     0.0510919  
H72      H      0.496470000000     0.279510000000     0.878010000000     0.0343178  
H73      H      0.553290000000     0.331400000000     0.749120000000     0.0529714  
H74      H      0.420720000000     0.183350000000     0.723200000000     0.0506293  
H75      H      0.478090000000     0.222770000000     0.596320000000     0.0281774  
H76      H      0.443470000000     0.354010000000     0.765510000000     0.0289111  
H77      H      0.773010000000     0.177640000000     0.452900000000     0.0442339  
H78      H      0.768290000000     0.353920000000     0.438820000000     0.0314844  
H79      H      0.641230000000     0.228140000000     0.530320000000     0.0298499  
H80      H      0.655960000000     0.289180000000     0.464150000000     0.0424073  
H81      H      0.703990000000     0.335320000000     0.500130000000     0.0431293  
H82      H      0.813200000000     0.215130000000     0.506060000000     0.046811   
H83      H      0.712010000000     0.113790000000     0.474420000000     0.0349912  
H84      H      0.771190000000     0.394380000000     0.490730000000     0.0340148  
H85      H      0.658500000000     0.242550000000     0.419280000000     0.0504867  
H86      H      0.808250000000     0.262240000000     0.549290000000     0.050557   
H87      H      0.596890000000     0.222630000000     0.481830000000     0.0360681  
H88      H      0.721310000000     0.180710000000     0.414460000000     0.0516166  
H89      H      0.747990000000     0.328120000000     0.547260000000     0.049587   
H90      H      0.878500000000     0.279090000000     0.499370000000     0.0268307  
H91      H      0.718800000000     0.155840000000     0.524960000000     0.0276702  
H92      H      0.786970000000     0.835780000000     0.526390000000     0.0433731  
H93      H      0.774830000000     0.653370000000     0.545090000000     0.0318574  
H94      H      0.654170000000     0.775120000000     0.461480000000     0.0276172  
H95      H      0.676100000000     0.717620000000     0.530440000000     0.042644   
H96      H      0.716320000000     0.678760000000     0.478440000000     0.042736   
H97      H      0.833740000000     0.790540000000     0.487620000000     0.0466462  
H98      H      0.720500000000     0.895310000000     0.510350000000     0.0349142  
H99      H      0.778330000000     0.614280000000     0.492080000000     0.0338192  
H100     H      0.678660000000     0.767180000000     0.571750000000     0.0521941  
H101     H      0.828140000000     0.746610000000     0.441020000000     0.050075   
H102     H      0.612170000000     0.779660000000     0.512190000000     0.0351684  
H103     H      0.739780000000     0.830970000000     0.570360000000     0.0520521  
H104     H      0.765160000000     0.684230000000     0.436570000000     0.0493966  
H105     H      0.893710000000     0.721710000000     0.493770000000     0.0273062  
H106     H      0.726680000000     0.853070000000     0.459990000000     0.0278209  
H107     H      0.158130000000     0.205610000000     0.470800000000     0.0436743  
H108     H      0.336750000000     0.218850000000     0.449240000000     0.0298581  
H109     H      0.218290000000     0.337310000000     0.537590000000     0.0297939  
H110     H      0.275610000000     0.317250000000     0.467650000000     0.0422197  
H111     H      0.315130000000     0.276350000000     0.518540000000     0.0428363  
H112     H      0.202350000000     0.159920000000     0.512330000000     0.0471662  
H113     H      0.098410000000     0.271530000000     0.488790000000     0.0349622  
H114     H      0.378410000000     0.214470000000     0.500180000000     0.0347174  
H115     H      0.225730000000     0.315140000000     0.426740000000     0.0495522  
H116     H      0.248440000000     0.164580000000     0.556750000000     0.0518039  
H117     H      0.213840000000     0.380650000000     0.487920000000     0.0345814  
H118     H      0.162320000000     0.253670000000     0.427670000000     0.0501827  
H119     H      0.311200000000     0.226420000000     0.559330000000     0.050953   
H120     H      0.270640000000     0.099300000000     0.502550000000     0.0286214  
H121     H      0.141410000000     0.265270000000     0.538410000000     0.0297986  
H122     H      0.333740000000     0.705350000000     0.521910000000     0.043776   
H123     H      0.154290000000     0.718520000000     0.543430000000     0.0292479  
H124     H      0.273910000000     0.837690000000     0.456250000000     0.029382   
H125     H      0.216090000000     0.816850000000     0.525460000000     0.0421337  
H126     H      0.176650000000     0.776040000000     0.474460000000     0.0429319  
H127     H      0.289080000000     0.659280000000     0.481360000000     0.0483068  
H128     H      0.393520000000     0.771690000000     0.505720000000     0.0344515  
H129     H      0.113060000000     0.714220000000     0.492140000000     0.0346763  
H130     H      0.265600000000     0.814340000000     0.566790000000     0.0495722  
H131     H      0.243390000000     0.664110000000     0.436550000000     0.0545786  
H132     H      0.277950000000     0.880460000000     0.506440000000     0.0341368  
H133     H      0.329080000000     0.752710000000     0.565780000000     0.0499189  
H134     H      0.180770000000     0.726220000000     0.433580000000     0.0520103  
H135     H      0.220610000000     0.598900000000     0.490560000000     0.0302201  
H136     H      0.351250000000     0.765710000000     0.455440000000     0.0296659  
H137     H      0.712190000000     0.522480000000     0.320110000000     0.0442925  
H138     H      0.722340000000     0.535620000000     0.143030000000     0.0324385  
H139     H      0.849300000000     0.455040000000     0.270150000000     0.0299347  
H140     H      0.828120000000     0.517810000000     0.207050000000     0.042647   
H141     H      0.784690000000     0.472210000000     0.164660000000     0.0430974  
H142     H      0.672550000000     0.469840000000     0.281590000000     0.047982   
H143     H      0.776090000000     0.510510000000     0.383480000000     0.0341869  
H144     H      0.718880000000     0.482900000000     0.103570000000     0.035984   
H145     H      0.822510000000     0.563750000000     0.252240000000     0.049795   
H146     H      0.678370000000     0.426260000000     0.234960000000     0.0537646  
H147     H      0.889430000000     0.507380000000     0.273120000000     0.0341318  
H148     H      0.759710000000     0.565840000000     0.314330000000     0.0501741  
H149     H      0.738860000000     0.427050000000     0.171180000000     0.0508896  
H150     H      0.608900000000     0.475960000000     0.215390000000     0.0301343  
H151     H      0.772520000000     0.457310000000     0.344490000000     0.0302704  
H152     H      0.329790000000     0.522300000000     0.283490000000     0.0447806  
H153     H      0.150660000000     0.546590000000     0.274250000000     0.0316966  
H154     H      0.270100000000     0.457020000000     0.150380000000     0.0268665  
H155     H      0.213910000000     0.527520000000     0.170300000000     0.0423446  
H156     H      0.170720000000     0.481390000000     0.212510000000     0.0425183  
H157     H      0.285510000000     0.478930000000     0.327300000000     0.0470193  
H158     H      0.389920000000     0.502600000000     0.218580000000     0.0369944  
H159     H      0.108800000000     0.495660000000     0.276470000000     0.0339793  
H160     H      0.264210000000     0.567860000000     0.173550000000     0.0518182  
H161     H      0.238760000000     0.435420000000     0.320950000000     0.0501432  
H162     H      0.276400000000     0.507110000000     0.107800000000     0.0348733  
H163     H      0.327100000000     0.565230000000     0.235290000000     0.0543102  
H164     H      0.175160000000     0.436930000000     0.259210000000     0.0491663  
H165     H      0.218530000000     0.486670000000     0.389260000000     0.0275308  
H166     H      0.345600000000     0.453920000000     0.223890000000     0.0271352  
H167     H      0.276400000000     0.521300000000     0.670480000000     0.0453713  
H168     H      0.268250000000     0.547180000000     0.845230000000     0.0293647  
H169     H      0.149020000000     0.442520000000     0.724340000000     0.0310591  
H170     H      0.160300000000     0.511620000000     0.783710000000     0.0421608  
H171     H      0.209370000000     0.478660000000     0.830730000000     0.0428782  
H172     H      0.320670000000     0.475690000000     0.712370000000     0.0474258  
H173     H      0.215700000000     0.495640000000     0.608460000000     0.0362568  
H174     H      0.273990000000     0.498810000000     0.889620000000     0.0343269  
H175     H      0.161060000000     0.554770000000     0.735460000000     0.0500007  
H176     H      0.318280000000     0.434760000000     0.761620000000     0.0524398  
H177     H      0.101610000000     0.488130000000     0.719280000000     0.0363288  
H178     H      0.224210000000     0.559200000000     0.672730000000     0.0531333  
H179     H      0.257740000000     0.435780000000     0.826760000000     0.0513602  
H180     H      0.384110000000     0.491060000000     0.776550000000     0.0287361  
H181     H      0.222760000000     0.447500000000     0.653200000000     0.0293575  
H182     H      0.708140000000     0.478600000000     0.664370000000     0.0440088  
H183     H      0.719970000000     0.454510000000     0.841430000000     0.0318115  
H184     H      0.842850000000     0.542240000000     0.721490000000     0.0322282  
H185     H      0.821980000000     0.473710000000     0.779670000000     0.0427773  
H186     H      0.780610000000     0.521220000000     0.822310000000     0.0434835  
H187     H      0.666140000000     0.524990000000     0.707610000000     0.0473162  
H188     H      0.773080000000     0.495380000000     0.603320000000     0.0344208  
H189     H      0.716610000000     0.504760000000     0.884020000000     0.0357249  
H190     H      0.817560000000     0.432070000000     0.730470000000     0.0497207  
H191     H      0.671880000000     0.566970000000     0.755730000000     0.0519865  
H192     H      0.884460000000     0.491230000000     0.716430000000     0.0358473  
H193     H      0.755340000000     0.434580000000     0.667730000000     0.0502049  
H194     H      0.733090000000     0.564830000000     0.818780000000     0.0511596  
H195     H      0.604030000000     0.514640000000     0.774390000000     0.0284733  
H196     H      0.769310000000     0.545130000000     0.646620000000     0.030394   
H197     H      0.831120000000     0.705990000000     0.024020000000     0.0446787  
H198     H      0.652420000000     0.719180000000     0.042530000000     0.029243   
H199     H      0.773420000000     0.839560000000     0.958040000000     0.0326511  
H200     H      0.715120000000     0.819030000000     0.026780000000     0.0424722  
H201     H      0.675080000000     0.778830000000     0.975820000000     0.0433881  
H202     H      0.788160000000     0.662640000000     0.978620000000     0.0474748  
H203     H      0.892030000000     0.771590000000     0.007960000000     0.0375478  
H204     H      0.611770000000     0.715850000000     0.990700000000     0.0330547  
H205     H      0.764360000000     0.815650000000     0.068390000000     0.0499994  
H206     H      0.742150000000     0.668560000000     0.934300000000     0.0523964  
H207     H      0.778010000000     0.881910000000     0.008490000000     0.0368688  
H208     H      0.826900000000     0.753660000000     0.067490000000     0.0520007  
H209     H      0.679630000000     0.730530000000     0.933170000000     0.0517628  
H210     H      0.720040000000     0.601510000000     0.986300000000     0.0274396  
H211     H      0.850090000000     0.766110000000     0.957310000000     0.0307703  
H212     H      0.818260000000     0.275940000000     0.962980000000     0.0436548  
H213     H      0.643170000000     0.269240000000     0.943100000000     0.0295827  
H214     H      0.767280000000     0.143650000000     0.037860000000     0.0309064  
H215     H      0.706440000000     0.158660000000     0.971430000000     0.0412174  
H216     H      0.659790000000     0.206400000000     0.006990000000     0.0430295  
H217     H      0.778860000000     0.316660000000     0.014210000000     0.0474912  
H218     H      0.881700000000     0.214330000000     0.983510000000     0.0344404  
H219     H      0.600760000000     0.272880000000     0.993380000000     0.0343649  
H220     H      0.753300000000     0.161720000000     0.926870000000     0.049024   
H221     H      0.730440000000     0.312170000000     0.055920000000     0.0525371  
H222     H      0.772350000000     0.099330000000     0.989240000000     0.0345256  
H223     H      0.815230000000     0.225120000000     0.923260000000     0.0501024  
H224     H      0.665150000000     0.251880000000     0.052890000000     0.0513452  
H225     H      0.714640000000     0.381450000000     0.004290000000     0.029896   
H226     H      0.839320000000     0.220110000000     0.033820000000     0.0308223  
H227     H      0.216900000000     0.674150000000     0.039480000000     0.0446772  
H228     H      0.223850000000     0.851280000000     0.052580000000     0.0312043  
H229     H      0.348290000000     0.727120000000     0.963100000000     0.0264341  
H230     H      0.332970000000     0.786700000000     0.031050000000     0.0426274  
H231     H      0.287020000000     0.830980000000     0.990030000000     0.0423171  
H232     H      0.176110000000     0.712360000000     0.987430000000     0.0470206  
H233     H      0.278610000000     0.611030000000     0.017400000000     0.0349397  
H234     H      0.220690000000     0.891210000000     0.000250000000     0.0342434  
H235     H      0.330740000000     0.738760000000     0.074400000000     0.0514473  
H236     H      0.181220000000     0.758910000000     0.943590000000     0.0513156  
H237     H      0.392680000000     0.721040000000     0.011490000000     0.0349092  
H238     H      0.268470000000     0.677050000000     0.078110000000     0.0520518  
H239     H      0.241850000000     0.823890000000     0.944140000000     0.0497345  
H240     H      0.111800000000     0.777280000000     0.994070000000     0.0263202  
H241     H      0.271240000000     0.653500000000     0.967330000000     0.026755   
H242     H      0.318630000000     0.216000000000     0.016360000000     0.0444698  
H243     H      0.143000000000     0.225240000000     0.036300000000     0.0302563  
H244     H      0.268330000000     0.349440000000     0.943550000000     0.0288787  
H245     H      0.206320000000     0.333000000000     0.008590000000     0.042131   
H246     H      0.160670000000     0.286040000000     0.970570000000     0.0419359  
H247     H      0.278810000000     0.174870000000     0.965980000000     0.0463378  
H248     H      0.381930000000     0.277960000000     0.997600000000     0.0339175  
H249     H      0.101030000000     0.219990000000     0.985810000000     0.0344563  
H250     H      0.252410000000     0.329300000000     0.053900000000     0.0494185  
H251     H      0.230040000000     0.178630000000     0.924650000000     0.0513722  
H252     H      0.272320000000     0.392960000000     0.992980000000     0.0342605  
H253     H      0.314830000000     0.265950000000     0.057120000000     0.0503794  
H254     H      0.165720000000     0.239140000000     0.926210000000     0.0501473  
H255     H      0.214250000000     0.110800000000     0.978120000000     0.0281319  
H256     H      0.339840000000     0.273510000000     0.946890000000     0.0290535  
H257     H      0.666590000000     0.014040000000     0.778460000000     0.0425088  
H258     H      0.845970000000     0.917750000000     0.778230000000     0.0303852  
H259     H      0.716580000000     0.070020000000     0.650130000000     0.0251651  
H260     H      0.779020000000     0.013570000000     0.667260000000     0.0419152  
H261     H      0.824650000000     0.969780000000     0.714150000000     0.0425715  
H262     H      0.711990000000     0.969810000000     0.824560000000     0.0479969  
H263     H      0.603230000000     0.025240000000     0.714920000000     0.0346637  
H264     H      0.889370000000     0.966990000000     0.777890000000     0.0338475  
H265     H      0.740610000000     0.959970000000     0.659240000000     0.0518297  
H266     H      0.747820000000     0.024700000000     0.830690000000     0.0510203  
H267     H      0.715830000000     0.023890000000     0.602920000000     0.0337098  
H268     H      0.658630000000     0.960410000000     0.740010000000     0.0543159  
H269     H      0.830390000000     0.025690000000     0.749700000000     0.049448   
H270     H      0.777220000000     0.970460000000     0.890120000000     0.0276445  
H271     H      0.651210000000     0.070560000000     0.715590000000     0.0253608  
H272     H      0.211740000000     0.970880000000     0.669080000000     0.0438398  
H273     H      0.224060000000     0.955640000000     0.846420000000     0.0294405  
H274     H      0.342210000000     0.047330000000     0.719930000000     0.0286385  
H275     H      0.327320000000     0.981410000000     0.782390000000     0.0416743  
H276     H      0.281440000000     0.024090000000     0.825110000000     0.042309   
H277     H      0.167800000000     0.018060000000     0.709540000000     0.0469924  
H278     H      0.274370000000     0.988980000000     0.606020000000     0.0336575  
H279     H      0.217790000000     0.007330000000     0.886910000000     0.0349712  
H280     H      0.325170000000     0.936360000000     0.736050000000     0.0493093  
H281     H      0.170940000000     0.061940000000     0.756170000000     0.0514295  
H282     H      0.387350000000     0.999240000000     0.717160000000     0.0335291  
H283     H      0.262110000000     0.930770000000     0.674050000000     0.0500981  
H284     H      0.232110000000     0.065480000000     0.819490000000     0.0500726  
H285     H      0.105820000000     0.006620000000     0.776150000000     0.0291487  
H286     H      0.267770000000     0.040650000000     0.646660000000     0.0287544  
H287     H      0.282730000000     0.023020000000     0.169670000000     0.0450525  
H288     H      0.270620000000     0.033090000000     0.347210000000     0.0328816  
H289     H      0.145940000000     0.956400000000     0.222100000000     0.0300464  
H290     H      0.168210000000     0.020690000000     0.283870000000     0.0427688  
H291     H      0.208740000000     0.969640000000     0.323390000000     0.0426545  
H292     H      0.322030000000     0.969730000000     0.207810000000     0.0469993  
H293     H      0.217890000000     0.010920000000     0.106930000000     0.0367857  
H294     H      0.274060000000     0.979540000000     0.385570000000     0.0355103  
H295     H      0.173290000000     0.065350000000     0.237410000000     0.0501243  
H296     H      0.315760000000     0.925340000000     0.253670000000     0.0515808  
H297     H      0.105940000000     0.008810000000     0.218610000000     0.0352401  
H298     H      0.235310000000     0.066530000000     0.175400000000     0.0520507  
H299     H      0.255040000000     0.925030000000     0.316710000000     0.0503289  
H300     H      0.385060000000     0.974550000000     0.274880000000     0.0283709  
H301     H      0.222310000000     0.957820000000     0.145970000000     0.0303741  
H302     H      0.712110000000     0.971250000000     0.168540000000     0.0441077  
H303     H      0.723170000000     0.958160000000     0.345390000000     0.0295709  
H304     H      0.842740000000     0.047360000000     0.220750000000     0.0317081  
H305     H      0.825710000000     0.982530000000     0.283700000000     0.0423221  
H306     H      0.779840000000     0.027560000000     0.324200000000     0.043146   
H307     H      0.667470000000     0.018870000000     0.207720000000     0.047197   
H308     H      0.775570000000     0.988760000000     0.106460000000     0.0340733  
H309     H      0.716040000000     0.009950000000     0.385580000000     0.0351566  
H310     H      0.824040000000     0.936860000000     0.237970000000     0.050081   
H311     H      0.669690000000     0.063210000000     0.253940000000     0.0517176  
H312     H      0.887210000000     0.998590000000     0.218990000000     0.0350641  
H313     H      0.762280000000     0.931020000000     0.174770000000     0.0508127  
H314     H      0.729790000000     0.067940000000     0.317830000000     0.051029   
H315     H      0.604840000000     0.007700000000     0.274090000000     0.0292197  
H316     H      0.768880000000     0.040710000000     0.146720000000     0.0297157  
H317     H      0.021130000000     0.275460000000     0.816890000000     0.0442747  
H318     H      0.037900000000     0.267530000000     0.641050000000     0.0326478  
H319     H      0.946750000000     0.142040000000     0.767910000000     0.0270275  
H320     H      0.011360000000     0.157880000000     0.705480000000     0.042212   
H321     H      0.974200000000     0.205210000000     0.659540000000     0.0417495  
H322     H      0.968900000000     0.315720000000     0.778340000000     0.0462798  
H323     H      0.002500000000     0.213920000000     0.880850000000     0.0360823  
H324     H      0.986560000000     0.271860000000     0.600020000000     0.0340968  
H325     H      0.057090000000     0.161530000000     0.751170000000     0.0504979  
H326     H      0.926790000000     0.311330000000     0.730280000000     0.0502447  
H327     H      0.996090000000     0.098420000000     0.772030000000     0.0345938  
H328     H      0.061310000000     0.225060000000     0.813100000000     0.0515352  
H329     H      0.928570000000     0.250840000000     0.665540000000     0.0485227  
H330     H      0.978540000000     0.380340000000     0.713860000000     0.0272537  
H331     H      0.951320000000     0.218850000000     0.839390000000     0.0274251  
H332     H      0.974590000000     0.706080000000     0.833270000000     0.0437594  
H333     H      0.954070000000     0.719600000000     0.653420000000     0.0343     
H334     H      0.043430000000     0.837070000000     0.774360000000     0.0289542  
H335     H      0.973740000000     0.818490000000     0.716320000000     0.0431308  
H336     H      0.023180000000     0.776500000000     0.676240000000     0.0433727  
H337     H      0.014770000000     0.659730000000     0.788700000000     0.0469332  
H338     H      0.993560000000     0.771210000000     0.893360000000     0.0340478  
H339     H      0.005580000000     0.714700000000     0.612590000000     0.0365925  
H340     H      0.932350000000     0.816610000000     0.765810000000     0.052761   
H341     H      0.059690000000     0.664010000000     0.743070000000     0.0503045  
H342     H      0.994460000000     0.881170000000     0.778560000000     0.0350594  
H343     H      0.932190000000     0.754760000000     0.829150000000     0.0529322  
H344     H      0.063770000000     0.726450000000     0.680650000000     0.0499261  
H345     H      0.004560000000     0.599530000000     0.720460000000     0.0290442  
H346     H      0.043070000000     0.764880000000     0.850170000000     0.0271741  
H347     H      0.977780000000     0.675870000000     0.216780000000     0.0447222  
H348     H      0.957950000000     0.849400000000     0.226640000000     0.0295886  
H349     H      0.051370000000     0.725400000000     0.349800000000     0.0291744  
H350     H      0.986100000000     0.787620000000     0.334180000000     0.0415045  
H351     H      0.024320000000     0.833330000000     0.287370000000     0.0426277  
H352     H      0.030740000000     0.714480000000     0.177240000000     0.0486988  
H353     H      0.996790000000     0.612030000000     0.278280000000     0.0331365  
H354     H      0.007620000000     0.892390000000     0.221190000000     0.0358967  
H355     H      0.940850000000     0.741380000000     0.330530000000     0.0492254  
H356     H      0.071260000000     0.764010000000     0.180690000000     0.0545853  
H357     H      0.002270000000     0.721360000000     0.393680000000     0.0345286  
H358     H      0.937260000000     0.679360000000     0.266930000000     0.0507485  
H359     H      0.068510000000     0.828760000000     0.240290000000     0.0509595  
H360     H      0.018130000000     0.778800000000     0.112640000000     0.0304528  
H361     H      0.047480000000     0.654170000000     0.273850000000     0.0292606  
H362     H      0.956780000000     0.217970000000     0.316740000000     0.0451134  
H363     H      0.941830000000     0.223560000000     0.141120000000     0.0320033  
H364     H      0.035750000000     0.348350000000     0.266590000000     0.0279407  
H365     H      0.968760000000     0.335480000000     0.205720000000     0.0416941  
H366     H      0.004070000000     0.287280000000     0.159300000000     0.0424483  
H367     H      0.009670000000     0.177520000000     0.278970000000     0.0468544  
H368     H      0.978760000000     0.278790000000     0.380760000000     0.0367512  
H369     H      0.993330000000     0.220410000000     0.100170000000     0.0341864  
H370     H      0.924290000000     0.333420000000     0.252690000000     0.0514814  
H371     H      0.052720000000     0.182300000000     0.231720000000     0.050483   
H372     H      0.988380000000     0.393970000000     0.271920000000     0.0348704  
H373     H      0.918720000000     0.270040000000     0.313940000000     0.0544358  
H374     H      0.050710000000     0.242660000000     0.166010000000     0.0491725  
H375     H      0.002300000000     0.112420000000     0.214770000000     0.0288777  
H376     H      0.029200000000     0.271450000000     0.338770000000     0.0281202  
N1       N      0.499370000000     0.329680000000     0.151410000000    -0.177086   
N2       N      0.491660000000     0.152110000000     0.327340000000    -0.17307    
N3       N      0.498290000000     0.652270000000     0.163550000000    -0.176255   
N4       N      0.500670000000     0.829440000000     0.340030000000    -0.172924   
N5       N      0.505410000000     0.842460000000     0.663330000000    -0.17656    
N6       N      0.499870000000     0.664460000000     0.839930000000    -0.172886   
N7       N      0.489650000000     0.165490000000     0.650130000000    -0.176455   
N8       N      0.488280000000     0.341560000000     0.828310000000    -0.172833   
N9       N      0.829690000000     0.340160000000     0.485310000000    -0.17677    
N10      N      0.651250000000     0.164230000000     0.486380000000    -0.172888   
N11      N      0.840030000000     0.663860000000     0.503010000000    -0.176312   
N12      N      0.662430000000     0.841060000000     0.502850000000    -0.172826   
N13      N      0.328120000000     0.152970000000     0.490870000000    -0.176712   
N14      N      0.152530000000     0.329970000000     0.495860000000    -0.173149   
N15      N      0.163140000000     0.652650000000     0.501850000000    -0.176472   
N16      N      0.339390000000     0.830010000000     0.498360000000    -0.173227   
N17      N      0.659320000000     0.491030000000     0.156060000000    -0.175859   
N18      N      0.836650000000     0.500460000000     0.332540000000    -0.17288    
N19      N      0.160180000000     0.501220000000     0.337380000000    -0.17646    
N20      N      0.336660000000     0.497130000000     0.159290000000    -0.172936   
N21      N      0.333190000000     0.504380000000     0.836100000000    -0.176767   
N22      N      0.155170000000     0.486340000000     0.659900000000    -0.172803   
N23      N      0.655990000000     0.498790000000     0.832330000000    -0.176487   
N24      N      0.832790000000     0.500440000000     0.656120000000    -0.17283    
N25      N      0.662260000000     0.654510000000     0.999340000000    -0.178076   
N26      N      0.838740000000     0.830590000000     0.000130000000    -0.17136    
N27      N      0.654590000000     0.331810000000     0.988780000000    -0.176402   
N28      N      0.831050000000     0.153370000000     0.993760000000    -0.172769   
N29      N      0.161590000000     0.837830000000     0.007110000000    -0.176922   
N30      N      0.338830000000     0.662230000000     0.005770000000    -0.173409   
N31      N      0.154620000000     0.161120000000     0.992880000000    -0.176531   
N32      N      0.331280000000     0.339140000000     0.988680000000    -0.173273   
N33      N      0.836770000000     0.967390000000     0.837840000000    -0.177565   
N34      N      0.655880000000     0.021750000000     0.655250000000    -0.174359   
N35      N      0.158020000000     0.996170000000     0.835120000000    -0.176538   
N36      N      0.334350000000     0.001050000000     0.657350000000    -0.173151   
N37      N      0.334010000000     0.989110000000     0.333820000000    -0.176239   
N38      N      0.158070000000     0.000630000000     0.158720000000    -0.172098   
N39      N      0.656700000000     0.997830000000     0.333400000000    -0.176683   
N40      N      0.835020000000     0.000630000000     0.158530000000    -0.172726   
N41      N      0.993310000000     0.330610000000     0.653760000000    -0.176428   
N42      N      0.992130000000     0.152620000000     0.830640000000    -0.173167   
N43      N      0.994880000000     0.653340000000     0.662750000000    -0.17586    
N44      N      0.001010000000     0.830000000000     0.839700000000    -0.172704   
N45      N      0.001600000000     0.838320000000     0.162620000000    -0.176262   
N46      N      0.005970000000     0.662530000000     0.339610000000    -0.173645   
N47      N      0.987970000000     0.161660000000     0.154100000000    -0.176108   
N48      N      0.991460000000     0.339530000000     0.330380000000    -0.172924   
O1       O      0.991020000000     0.137680000000     0.073230000000    -0.376779   
O2       O      0.000890000000     0.858420000000     0.080880000000    -0.376775   
O3       O      0.916490000000     0.999620000000     0.136890000000    -0.377115   
O4       O      0.076770000000     0.000160000000     0.136730000000    -0.378155   
O5       O      0.136270000000     0.000270000000     0.077320000000    -0.376139   
O6       O      0.857190000000     0.996280000000     0.077410000000    -0.378631   
O7       O      0.998960000000     0.919330000000     0.138870000000    -0.380105   
O8       O      0.993200000000     0.079840000000     0.134280000000    -0.37758    
O9       O      0.047560000000     0.948580000000     0.048150000000    -0.50632    
O10      O      0.945860000000     0.045850000000     0.045480000000    -0.50731    
O11      O      0.947860000000     0.945790000000     0.048720000000    -0.651551   
O12      O      0.045380000000     0.048410000000     0.045590000000    -0.648383   
O13      O      0.999750000000     0.853870000000     0.920580000000    -0.378178   
O14      O      0.994050000000     0.133090000000     0.912610000000    -0.378858   
O15      O      0.859040000000     0.912380000000     0.999900000000    -0.378258   
O16      O      0.138200000000     0.918840000000     0.001790000000    -0.377059   
O17      O      0.134220000000     0.079320000000     0.994260000000    -0.378082   
O18      O      0.855030000000     0.072490000000     0.994780000000    -0.380283   
O19      O      0.917150000000     0.982220000000     0.858310000000    -0.378414   
O20      O      0.076870000000     0.994850000000     0.857610000000    -0.377905   
O21      O      0.857890000000     0.982600000000     0.917880000000    -0.378882   
O22      O      0.136530000000     0.997290000000     0.916780000000    -0.378961   
O23      O      0.919710000000     0.854120000000     0.999850000000    -0.37833    
O24      O      0.912960000000     0.133480000000     0.993550000000    -0.377597   
O25      O      0.073530000000     0.137580000000     0.993260000000    -0.378231   
O26      O      0.079990000000     0.858130000000     0.002930000000    -0.37703    
O27      O      0.999530000000     0.911860000000     0.859660000000    -0.376448   
O28      O      0.993620000000     0.071840000000     0.854940000000    -0.380884   
O29      O      0.045480000000     0.045510000000     0.945810000000    -0.507363   
O30      O      0.948390000000     0.943650000000     0.949030000000    -0.509263   
O31      O      0.945200000000     0.043220000000     0.945450000000    -0.65032    
O32      O      0.048080000000     0.945460000000     0.948500000000    -0.651304   
O33      O      0.991650000000     0.359120000000     0.412350000000    -0.377627   
O34      O      0.002900000000     0.638490000000     0.420280000000    -0.378668   
O35      O      0.917750000000     0.500670000000     0.355620000000    -0.377757   
O36      O      0.078300000000     0.499960000000     0.357890000000    -0.377257   
O37      O      0.136750000000     0.496620000000     0.418220000000    -0.377446   
O38      O      0.857470000000     0.501530000000     0.414240000000    -0.377864   
O39      O      0.001210000000     0.580680000000     0.359200000000    -0.378406   
O40      O      0.994990000000     0.420230000000     0.354620000000    -0.378951   
O41      O      0.048040000000     0.546190000000     0.448690000000    -0.507499   
O42      O      0.945540000000     0.449920000000     0.444780000000    -0.507428   
O43      O      0.948240000000     0.549770000000     0.447080000000    -0.649881   
O44      O      0.045190000000     0.446310000000     0.445580000000    -0.650706   
O45      O      0.997790000000     0.634070000000     0.580620000000    -0.377272   
O46      O      0.992540000000     0.354510000000     0.572780000000    -0.378432   
O47      O      0.858930000000     0.581580000000     0.498290000000    -0.377797   
O48      O      0.138200000000     0.572140000000     0.499950000000    -0.376948   
O49      O      0.133070000000     0.412010000000     0.496540000000    -0.379415   
O50      O      0.853950000000     0.420910000000     0.490360000000    -0.377929   
O51      O      0.914180000000     0.496570000000     0.634930000000    -0.377936   
O52      O      0.074170000000     0.489420000000     0.636950000000    -0.377      
O53      O      0.855400000000     0.499940000000     0.574900000000    -0.378149   
O54      O      0.134430000000     0.489670000000     0.578330000000    -0.377713   
O55      O      0.920470000000     0.638860000000     0.500880000000    -0.377501   
O56      O      0.911550000000     0.359600000000     0.490160000000    -0.377921   
O57      O      0.071870000000     0.354350000000     0.494480000000    -0.377561   
O58      O      0.080880000000     0.633690000000     0.500640000000    -0.377751   
O59      O      0.995000000000     0.572710000000     0.638080000000    -0.377772   
O60      O      0.992930000000     0.412520000000     0.633670000000    -0.378487   
O61      O      0.043640000000     0.443710000000     0.545450000000    -0.508135   
O62      O      0.947240000000     0.546540000000     0.546780000000    -0.507695   
O63      O      0.943580000000     0.446670000000     0.544320000000    -0.650807   
O64      O      0.046920000000     0.543670000000     0.548500000000    -0.651846   
O65      O      0.575410000000     0.995530000000     0.355620000000    -0.377634   
O66      O      0.575390000000     0.009650000000     0.634220000000    -0.378821   
O67      O      0.632020000000     0.082170000000     0.489460000000    -0.376713   
O68      O      0.637810000000     0.921770000000     0.499810000000    -0.378802   
O69      O      0.580390000000     0.860290000000     0.501410000000    -0.377817   
O70      O      0.570650000000     0.139700000000     0.488960000000    -0.377594   
O71      O      0.634860000000     0.009220000000     0.574760000000    -0.37997    
O72      O      0.634930000000     0.999450000000     0.414840000000    -0.379882   
O73      O      0.547150000000     0.951010000000     0.547100000000    -0.507225   
O74      O      0.543460000000     0.046790000000     0.443360000000    -0.507382   
O75      O      0.543430000000     0.050870000000     0.542730000000    -0.654451   
O76      O      0.547070000000     0.946900000000     0.447260000000    -0.65338    
O77      O      0.415530000000     0.001290000000     0.634990000000    -0.378997   
O78      O      0.415230000000     0.989490000000     0.356080000000    -0.377906   
O79      O      0.490440000000     0.140190000000     0.569690000000    -0.377861   
O80      O      0.501550000000     0.860930000000     0.581100000000    -0.378946   
O81      O      0.499940000000     0.854380000000     0.420580000000    -0.37767    
O82      O      0.491940000000     0.133470000000     0.409450000000    -0.379446   
O83      O      0.353050000000     0.072440000000     0.493260000000    -0.377115   
O84      O      0.358620000000     0.912100000000     0.497350000000    -0.379555   
O85      O      0.410300000000     0.134020000000     0.490980000000    -0.3794     
O86      O      0.420030000000     0.854650000000     0.499350000000    -0.378355   
O87      O      0.491450000000     0.083130000000     0.631480000000    -0.37655    
O88      O      0.493110000000     0.071630000000     0.352440000000    -0.377407   
O89      O      0.497450000000     0.911540000000     0.358920000000    -0.378533   
O90      O      0.501040000000     0.922890000000     0.638010000000    -0.378638   
O91      O      0.355880000000     0.996750000000     0.575920000000    -0.378106   
O92      O      0.355650000000     0.990250000000     0.415400000000    -0.377484   
O93      O      0.447220000000     0.943580000000     0.447580000000    -0.507768   
O94      O      0.443850000000     0.047360000000     0.543150000000    -0.507622   
O95      O      0.443680000000     0.043420000000     0.443540000000    -0.652723   
O96      O      0.447170000000     0.947400000000     0.547450000000    -0.652432   
O97      O      0.355030000000     0.419980000000     0.992710000000    -0.378479   
O98      O      0.634270000000     0.413620000000     0.992530000000    -0.378      
O99      O      0.491430000000     0.360330000000     0.910440000000    -0.377761   
O100     O      0.496620000000     0.354300000000     0.070790000000    -0.378734   
O101     O      0.497690000000     0.411750000000     0.132200000000    -0.378888   
O102     O      0.491750000000     0.422060000000     0.853290000000    -0.376874   
O103     O      0.573590000000     0.355430000000     0.989890000000    -0.378401   
O104     O      0.413110000000     0.359130000000     0.990930000000    -0.379126   
O105     O      0.545710000000     0.444110000000     0.043310000000    -0.50731    
O106     O      0.445070000000     0.450160000000     0.944900000000    -0.507983   
O107     O      0.544760000000     0.447720000000     0.943500000000    -0.652706   
O108     O      0.445730000000     0.446080000000     0.044530000000    -0.651072   
O109     O      0.637940000000     0.573850000000     0.996530000000    -0.378295   
O110     O      0.358880000000     0.580410000000     0.001880000000    -0.377374   
O111     O      0.575050000000     0.500400000000     0.855540000000    -0.378319   
O112     O      0.577850000000     0.490920000000     0.134510000000    -0.376378   
O113     O      0.417730000000     0.494850000000     0.136330000000    -0.377429   
O114     O      0.414770000000     0.502780000000     0.857250000000    -0.377599   
O115     O      0.499560000000     0.639720000000     0.920530000000    -0.378634   
O116     O      0.499160000000     0.633810000000     0.081150000000    -0.377184   
O117     O      0.497870000000     0.582310000000     0.859070000000    -0.377863   
O118     O      0.498010000000     0.571910000000     0.138110000000    -0.376485   
O119     O      0.635250000000     0.496990000000     0.914120000000    -0.377571   
O120     O      0.355950000000     0.502500000000     0.917300000000    -0.379085   
O121     O      0.357630000000     0.498160000000     0.077640000000    -0.378037   
O122     O      0.636900000000     0.491800000000     0.074660000000    -0.376328   
O123     O      0.580150000000     0.634920000000     0.999290000000    -0.379033   
O124     O      0.419630000000     0.638600000000     0.002480000000    -0.377739   
O125     O      0.448400000000     0.546200000000     0.047780000000    -0.506996   
O126     O      0.547020000000     0.547600000000     0.947230000000    -0.507646   
O127     O      0.447060000000     0.550090000000     0.948250000000    -0.651383   
O128     O      0.547980000000     0.544090000000     0.046920000000    -0.652137   
S1       S      0.558000000000     0.344790000000     0.222860000000    -0.0315959  
S2       S      0.437130000000     0.633920000000     0.232020000000    -0.0307953  
S3       S      0.568440000000     0.860570000000     0.730080000000    -0.0305558  
S4       S      0.550610000000     0.234160000000     0.631810000000    -0.0354306  
S5       S      0.846640000000     0.270710000000     0.424740000000    -0.0318805  
S6       S      0.858600000000     0.729740000000     0.566930000000    -0.0285379  
S7       S      0.259320000000     0.134860000000     0.430060000000    -0.0352411  
S8       S      0.231470000000     0.634390000000     0.563160000000    -0.0370065  
S9       S      0.639980000000     0.550790000000     0.225560000000    -0.0348271  
S10      S      0.229770000000     0.560760000000     0.356950000000    -0.0308458  
S11      S      0.346580000000     0.562390000000     0.763790000000    -0.0358288  
S12      S      0.636890000000     0.441130000000     0.761020000000    -0.0349316  
S13      S      0.730860000000     0.634840000000     0.059940000000    -0.0345964  
S14      S      0.725980000000     0.348470000000     0.930550000000    -0.0354286  
S15      S      0.144260000000     0.769140000000     0.068460000000    -0.0319255  
S16      S      0.226420000000     0.145530000000     0.050950000000    -0.0350407  
S17      S      0.774390000000     0.898920000000     0.851420000000    -0.0335843  
S18      S      0.142950000000     0.934640000000     0.766110000000    -0.0363628  
S19      S      0.354380000000     0.049620000000     0.265230000000    -0.0328339  
S20      S      0.642390000000     0.935840000000     0.264650000000    -0.0360809  
S21      S      0.052260000000     0.347060000000     0.724630000000    -0.0290827  
S22      S      0.932600000000     0.636540000000     0.730600000000    -0.0286033  
S23      S      0.945220000000     0.765220000000     0.146590000000    -0.0376688  
S24      S      0.927940000000     0.144650000000     0.223900000000    -0.0302112  
Zr1      Zr     0.996640000000     0.998520000000     0.096310000000     1.4256     
Zr2      Zr     0.999030000000     0.896500000000     0.999780000000     1.42681    
Zr3      Zr     0.994240000000     0.095110000000     0.994090000000     1.42015    
Zr4      Zr     0.897660000000     0.993380000000     0.997400000000     1.42739    
Zr5      Zr     0.095960000000     0.998130000000     0.997070000000     1.42323    
Zr6      Zr     0.996850000000     0.992980000000     0.898020000000     1.42606    
Zr7      Zr     0.997420000000     0.499360000000     0.397200000000     1.42373    
Zr8      Zr     0.999260000000     0.595900000000     0.499230000000     1.42512    
Zr9      Zr     0.992970000000     0.397290000000     0.493680000000     1.42484    
Zr10     Zr     0.896730000000     0.499890000000     0.495070000000     1.42487    
Zr11     Zr     0.095140000000     0.493430000000     0.497690000000     1.42955    
Zr12     Zr     0.994650000000     0.493730000000     0.595420000000     1.42785    
Zr13     Zr     0.594600000000     0.000610000000     0.495010000000     1.42886    
Zr14     Zr     0.495500000000     0.001300000000     0.594320000000     1.42873    
Zr15     Zr     0.495340000000     0.993230000000     0.396240000000     1.42878    
Zr16     Zr     0.491910000000     0.096470000000     0.491230000000     1.43014    
Zr17     Zr     0.498840000000     0.897940000000     0.499270000000     1.42386    
Zr18     Zr     0.396190000000     0.993710000000     0.495570000000     1.42554    
Zr19     Zr     0.494290000000     0.397660000000     0.992180000000     1.42437    
Zr20     Zr     0.595660000000     0.494720000000     0.994780000000     1.42673    
Zr21     Zr     0.397240000000     0.499250000000     0.996980000000     1.42405    
Zr22     Zr     0.495380000000     0.500690000000     0.896740000000     1.42843    
Zr23     Zr     0.497370000000     0.493350000000     0.094790000000     1.43007    
Zr24     Zr     0.498850000000     0.596440000000     0.999310000000     1.42402    


