data_structure

_audit_creation_method RASPA-1.0
_audit_creation_date 2023-5-25
_audit_author_name 'Poobodin Mano'

_cell_length_a    33.4213
_cell_length_b    33.4438
_cell_length_c    33.3875
_cell_angle_alpha 90
_cell_angle_beta  90
_cell_angle_gamma 90
_cell_volume      37318.4

_symmetry_cell_setting          triclinic
_symmetry_space_group_name_Hall 'P 1'
_symmetry_space_group_name_H-M  'P 1'
_symmetry_Int_Tables_number     1

_symmetry_equiv_pos_as_xyz 'x,y,z'

loop_
_atom_site_label
_atom_site_type_symbol
_atom_site_fract_x
_atom_site_fract_y
_atom_site_fract_z
_atom_site_charge
C1       C      0.982710000000     0.089980000000     0.082890000000     0.393675   
C2       C      0.978420000000     0.885640000000     0.091840000000     0.389559   
C3       C      0.881040000000     0.992430000000     0.085090000000     0.391112   
C4       C      0.085790000000     0.985850000000     0.090330000000     0.386186   
C5       C      0.985790000000     0.877270000000     0.887710000000     0.393234   
C6       C      0.993370000000     0.080970000000     0.878830000000     0.391571   
C7       C      0.880330000000     0.884590000000     0.982920000000     0.392787   
C8       C      0.084490000000     0.878750000000     0.991670000000     0.390248   
C9       C      0.090830000000     0.082350000000     0.983110000000     0.393324   
C10      C      0.886750000000     0.088720000000     0.976400000000     0.390585   
C11      C      0.885110000000     0.979340000000     0.880950000000     0.390047   
C12      C      0.089250000000     0.981600000000     0.885550000000     0.394682   
C13      C      0.985970000000     0.385760000000     0.379110000000     0.39107    
C14      C      0.993350000000     0.589810000000     0.387770000000     0.393094   
C15      C      0.885290000000     0.487630000000     0.382210000000     0.393194   
C16      C      0.089360000000     0.486220000000     0.384430000000     0.394401   
C17      C      0.985850000000     0.580470000000     0.592120000000     0.392093   
C18      C      0.979030000000     0.376590000000     0.582900000000     0.393214   
C19      C      0.887990000000     0.589720000000     0.489920000000     0.392317   
C20      C      0.092570000000     0.580990000000     0.488460000000     0.393858   
C21      C      0.083610000000     0.377100000000     0.486690000000     0.394041   
C22      C      0.879530000000     0.386400000000     0.477540000000     0.39301    
C23      C      0.884010000000     0.488590000000     0.586660000000     0.3974     
C24      C      0.087060000000     0.471830000000     0.588550000000     0.391763   
C25      C      0.585780000000     0.978840000000     0.381520000000     0.394216   
C26      C      0.380510000000     0.986520000000     0.386630000000     0.396703   
C27      C      0.487260000000     0.876860000000     0.387400000000     0.394966   
C28      C      0.473380000000     0.076730000000     0.374460000000     0.392974   
C29      C      0.385360000000     0.981220000000     0.589300000000     0.393789   
C30      C      0.588610000000     0.996370000000     0.585020000000     0.391303   
C31      C      0.387930000000     0.877160000000     0.495070000000     0.391915   
C32      C      0.377560000000     0.080260000000     0.476820000000     0.392755   
C33      C      0.581700000000     0.091190000000     0.479200000000     0.389516   
C34      C      0.591900000000     0.886770000000     0.485570000000     0.389927   
C35      C      0.487690000000     0.886940000000     0.591730000000     0.390011   
C36      C      0.479900000000     0.091200000000     0.580960000000     0.391289   
C37      C      0.388190000000     0.376870000000     0.987630000000     0.392128   
C38      C      0.378950000000     0.580640000000     0.989910000000     0.392973   
C39      C      0.383730000000     0.471590000000     0.087730000000     0.392757   
C40      C      0.383550000000     0.485500000000     0.883780000000     0.394032   
C41      C      0.583060000000     0.589740000000     0.993820000000     0.391136   
C42      C      0.592650000000     0.386150000000     0.984020000000     0.392789   
C43      C      0.479710000000     0.581490000000     0.091660000000     0.393252   
C44      C      0.484080000000     0.588140000000     0.886890000000     0.390978   
C45      C      0.492340000000     0.384020000000     0.880900000000     0.389407   
C46      C      0.490710000000     0.378320000000     0.085940000000     0.389346   
C47      C      0.587100000000     0.490010000000     0.088400000000     0.396007   
C48      C      0.587180000000     0.492580000000     0.884270000000     0.392929   
C49      C      0.497370000000     0.130740000000     0.281740000000    -0.0310846  
C50      C      0.472280000000     0.325200000000     0.182330000000    -0.0299709  
C51      C      0.507100000000     0.308450000000     0.103980000000    -0.00884688 
C52      C      0.489490000000     0.359640000000     0.157520000000    -0.00732949 
C53      C      0.513310000000     0.248240000000     0.232220000000    -0.0543232  
C54      C      0.442790000000     0.203640000000     0.227150000000    -0.0541347  
C55      C      0.485540000000     0.256920000000     0.201960000000     0.0606806  
C56      C      0.489600000000     0.276420000000     0.131630000000    -0.0293866  
C57      C      0.471300000000     0.193930000000     0.256340000000     0.060714   
C58      C      0.451600000000     0.170480000000     0.322640000000    -0.0423131  
C59      C      0.506140000000     0.217350000000     0.259550000000    -0.0565523  
C60      C      0.435640000000     0.132890000000     0.343810000000     0.0388443  
C61      C      0.484770000000     0.092250000000     0.303210000000    -0.00522019 
C62      C      0.449480000000     0.235160000000     0.200460000000    -0.0565606  
C63      C      0.475960000000     0.823180000000     0.289970000000    -0.0308919  
C64      C      0.487620000000     0.626840000000     0.193420000000    -0.0298336  
C65      C      0.468170000000     0.651470000000     0.111890000000    -0.00804772 
C66      C      0.472350000000     0.595600000000     0.163760000000    -0.00689013 
C67      C      0.444290000000     0.710860000000     0.235060000000    -0.0546192  
C68      C      0.521340000000     0.737830000000     0.253370000000    -0.0540873  
C69      C      0.477230000000     0.695080000000     0.214550000000     0.0616395  
C70      C      0.483800000000     0.679750000000     0.144120000000    -0.0292359  
C71      C      0.488340000000     0.754090000000     0.273390000000     0.0613335  
C72      C      0.483290000000     0.774310000000     0.342860000000    -0.0440013  
C73      C      0.449670000000     0.740110000000     0.264370000000    -0.0567031  
C74      C      0.499180000000     0.805490000000     0.372490000000     0.0415288  
C75      C      0.491160000000     0.857090000000     0.316440000000    -0.00657092 
C76      C      0.515980000000     0.708450000000     0.224190000000    -0.0569113  
C77      C      0.477270000000     0.689970000000     0.840320000000    -0.031025   
C78      C      0.492730000000     0.788280000000     0.644630000000    -0.0299235  
C79      C      0.478570000000     0.872260000000     0.663660000000    -0.00763155 
C80      C      0.479010000000     0.816490000000     0.611390000000    -0.0073573  
C81      C      0.447530000000     0.752800000000     0.729980000000    -0.0542745  
C82      C      0.523590000000     0.729990000000     0.756330000000    -0.0541399  
C83      C      0.481410000000     0.771670000000     0.714030000000     0.0607704  
C84      C      0.491930000000     0.840840000000     0.694290000000    -0.0299839  
C85      C      0.489730000000     0.710990000000     0.772120000000     0.0606015  
C86      C      0.480760000000     0.640690000000     0.787510000000    -0.043423   
C87      C      0.451510000000     0.722710000000     0.758780000000    -0.0564649  
C88      C      0.494630000000     0.607690000000     0.816310000000     0.0403296  
C89      C      0.491010000000     0.660070000000     0.872130000000    -0.00604353 
C90      C      0.519620000000     0.760060000000     0.727500000000    -0.0566902  
C91      C      0.486340000000     0.192970000000     0.627260000000    -0.031306   
C92      C      0.488020000000     0.285670000000     0.828030000000    -0.0300903  
C93      C      0.501480000000     0.369640000000     0.808870000000    -0.00765958 
C94      C      0.503830000000     0.313810000000     0.860580000000    -0.00782131 
C95      C      0.525890000000     0.252920000000     0.736930000000    -0.0543087  
C96      C      0.447780000000     0.230400000000     0.717140000000    -0.0541927  
C97      C      0.493630000000     0.270220000000     0.757380000000     0.0606513  
C98      C      0.485580000000     0.338910000000     0.778930000000    -0.0299889  
C99      C      0.480050000000     0.212890000000     0.696890000000     0.0604741  
C100     C      0.487700000000     0.143110000000     0.679760000000    -0.0439357  
C101     C      0.519300000000     0.224480000000     0.706950000000    -0.0564582  
C102     C      0.471720000000     0.110410000000     0.651890000000     0.0412727  
C103     C      0.470420000000     0.162990000000     0.596370000000    -0.00598461 
C104     C      0.454360000000     0.258860000000     0.747110000000    -0.0566965  
C105     C      0.777340000000     0.341050000000     0.481570000000    -0.0313413  
C106     C      0.680410000000     0.144060000000     0.473070000000    -0.0299019  
C107     C      0.596050000000     0.163390000000     0.484560000000    -0.00776229 
C108     C      0.652040000000     0.111480000000     0.488020000000    -0.00752937 
C109     C      0.714440000000     0.231780000000     0.514400000000    -0.0544271  
C110     C      0.738030000000     0.254940000000     0.437460000000    -0.0542207  
C111     C      0.696360000000     0.214020000000     0.480990000000     0.0607849  
C112     C      0.627580000000     0.193290000000     0.470060000000    -0.0298809  
C113     C      0.756200000000     0.272600000000     0.470880000000     0.0605315  
C114     C      0.826460000000     0.287930000000     0.479200000000    -0.044061   
C115     C      0.744160000000     0.260790000000     0.509530000000    -0.0564536  
C116     C      0.859580000000     0.316360000000     0.465010000000     0.0409234  
C117     C      0.807620000000     0.372350000000     0.467480000000    -0.00598271 
C118     C      0.708390000000     0.225830000000     0.442330000000    -0.0567606  
C119     C      0.789280000000     0.642380000000     0.483430000000    -0.0311515  
C120     C      0.694490000000     0.841360000000     0.491220000000    -0.0300852  
C121     C      0.611910000000     0.816200000000     0.478360000000    -0.00841881 
C122     C      0.663810000000     0.872180000000     0.476690000000    -0.00754077 
C123     C      0.732350000000     0.753940000000     0.449370000000    -0.0544311  
C124     C      0.756100000000     0.731090000000     0.526340000000    -0.0542341  
C125     C      0.714790000000     0.772270000000     0.482770000000     0.0608991  
C126     C      0.645090000000     0.788620000000     0.493270000000    -0.0294191  
C127     C      0.773230000000     0.712370000000     0.492950000000     0.0607073  
C128     C      0.842220000000     0.691650000000     0.484220000000    -0.0440297  
C129     C      0.761420000000     0.724290000000     0.454280000000    -0.0566071  
C130     C      0.873020000000     0.661490000000     0.499930000000     0.0413552  
C131     C      0.817200000000     0.609260000000     0.498290000000    -0.006429   
C132     C      0.727140000000     0.760850000000     0.521430000000    -0.0567281  
C133     C      0.181130000000     0.323290000000     0.479710000000    -0.0314436  
C134     C      0.275640000000     0.124710000000     0.482190000000    -0.0304138  
C135     C      0.356500000000     0.149170000000     0.460540000000    -0.00709736 
C136     C      0.305370000000     0.093440000000     0.466860000000    -0.00713064 
C137     C      0.234480000000     0.211490000000     0.440680000000    -0.0546151  
C138     C      0.216180000000     0.234800000000     0.519010000000    -0.0542597  
C139     C      0.254260000000     0.193310000000     0.472860000000     0.0608923  
C140     C      0.324720000000     0.177870000000     0.476450000000    -0.0301499  
C141     C      0.196570000000     0.253140000000     0.486820000000     0.0606108  
C142     C      0.127590000000     0.274500000000     0.480470000000    -0.0441746  
C143     C      0.205890000000     0.241210000000     0.447450000000    -0.0565378  
C144     C      0.097240000000     0.305100000000     0.496240000000     0.0409388  
C145     C      0.153920000000     0.356320000000     0.495810000000    -0.00566849 
C146     C      0.244880000000     0.205180000000     0.512230000000    -0.0568183  
C147     C      0.193870000000     0.626990000000     0.501260000000    -0.0310071  
C148     C      0.290120000000     0.824090000000     0.492330000000    -0.0300684  
C149     C      0.373770000000     0.805980000000     0.509180000000    -0.00749467 
C150     C      0.317750000000     0.857380000000     0.507050000000    -0.00735933 
C151     C      0.254090000000     0.737660000000     0.534480000000    -0.0544758  
C152     C      0.235850000000     0.711710000000     0.456990000000    -0.0542551  
C153     C      0.274240000000     0.754390000000     0.501730000000     0.0609527  
C154     C      0.343420000000     0.775000000000     0.494570000000    -0.0300205  
C155     C      0.215610000000     0.695100000000     0.489720000000     0.0609448  
C156     C      0.144990000000     0.679760000000     0.493540000000    -0.0439099  
C157     C      0.224930000000     0.708290000000     0.528670000000    -0.0566779  
C158     C      0.113250000000     0.650970000000     0.477240000000     0.0410699  
C159     C      0.164950000000     0.595200000000     0.485570000000    -0.0066556  
C160     C      0.264900000000     0.741170000000     0.462790000000    -0.0567314  
C161     C      0.687360000000     0.489480000000     0.136930000000    -0.0313596  
C162     C      0.784980000000     0.493880000000     0.333190000000    -0.0299751  
C163     C      0.868250000000     0.480270000000     0.310720000000    -0.00735473 
C164     C      0.814240000000     0.478660000000     0.364790000000    -0.00712972 
C165     C      0.748410000000     0.452900000000     0.245560000000    -0.0546585  
C166     C      0.724240000000     0.530130000000     0.224410000000    -0.0543852  
C167     C      0.766540000000     0.485940000000     0.263790000000     0.061172   
C168     C      0.836070000000     0.495310000000     0.281870000000    -0.0299079  
C169     C      0.706050000000     0.497060000000     0.206240000000     0.0607789  
C170     C      0.636540000000     0.486940000000     0.188640000000    -0.0443743  
C171     C      0.718420000000     0.458260000000     0.216970000000    -0.0565845  
C172     C      0.603710000000     0.500820000000     0.159710000000     0.041311   
C173     C      0.657530000000     0.504020000000     0.105540000000    -0.00540618 
C174     C      0.754290000000     0.524760000000     0.252970000000    -0.0569377  
C175     C      0.138700000000     0.476850000000     0.284780000000    -0.031052   
C176     C      0.335560000000     0.474840000000     0.187810000000    -0.0301631  
C177     C      0.312990000000     0.458410000000     0.105090000000    -0.00735286 
C178     C      0.366890000000     0.458720000000     0.158670000000    -0.00724934 
C179     C      0.247750000000     0.436810000000     0.226780000000    -0.0545949  
C180     C      0.226630000000     0.515390000000     0.246100000000    -0.0542104  
C181     C      0.266130000000     0.468670000000     0.206710000000     0.0610643  
C182     C      0.283980000000     0.474410000000     0.136670000000    -0.0300802  
C183     C      0.208170000000     0.483540000000     0.266070000000     0.0609478  
C184     C      0.189860000000     0.478610000000     0.336110000000    -0.0440377  
C185     C      0.218990000000     0.444040000000     0.256260000000    -0.0566284  
C186     C      0.160790000000     0.495510000000     0.367380000000     0.0413077  
C187     C      0.107050000000     0.493820000000     0.313060000000    -0.00648714 
C188     C      0.255420000000     0.508170000000     0.216660000000    -0.0567741  
C189     C      0.283590000000     0.477070000000     0.834910000000    -0.0313534  
C190     C      0.186710000000     0.476140000000     0.637690000000    -0.0299811  
C191     C      0.103960000000     0.459320000000     0.659620000000    -0.00775422 
C192     C      0.157940000000     0.459860000000     0.606060000000    -0.00748725 
C193     C      0.225350000000     0.437980000000     0.725540000000    -0.0546359  
C194     C      0.244260000000     0.516490000000     0.747300000000    -0.0542761  
C195     C      0.205170000000     0.469850000000     0.707330000000     0.0608945  
C196     C      0.135260000000     0.475480000000     0.688890000000    -0.0299305  
C197     C      0.264380000000     0.484600000000     0.765570000000     0.0604845  
C198     C      0.334480000000     0.479990000000     0.783340000000    -0.0441847  
C199     C      0.254760000000     0.445140000000     0.754420000000    -0.0566     
C200     C      0.365960000000     0.496160000000     0.812630000000     0.0409144  
C201     C      0.312070000000     0.493420000000     0.866750000000    -0.00583688 
C202     C      0.214910000000     0.509320000000     0.718370000000    -0.0568676  
C203     C      0.822770000000     0.470710000000     0.677390000000    -0.0318998  
C204     C      0.685110000000     0.516950000000     0.835870000000    -0.0295473  
C205     C      0.607270000000     0.484160000000     0.814090000000    -0.00592162 
C206     C      0.648830000000     0.525840000000     0.862370000000    -0.00830672 
C207     C      0.695660000000     0.508760000000     0.724040000000    -0.0536026  
C208     C      0.775830000000     0.506570000000     0.746730000000    -0.0536124  
C209     C      0.705160000000     0.507300000000     0.765020000000     0.0599951  
C210     C      0.646150000000     0.474420000000     0.792260000000    -0.030055   
C211     C      0.766280000000     0.506520000000     0.705760000000     0.0596612  
C212     C      0.787070000000     0.517300000000     0.635210000000    -0.0438188  
C213     C      0.725460000000     0.506930000000     0.694820000000    -0.0547186  
C214     C      0.824040000000     0.524610000000     0.608900000000     0.0393752  
C215     C      0.862390000000     0.478380000000     0.656080000000    -0.00403194 
C216     C      0.745970000000     0.505530000000     0.775930000000    -0.0550513  
C217     C      0.778750000000     0.838390000000     0.988470000000    -0.0334002  
C218     C      0.681670000000     0.641400000000     0.989780000000    -0.035633   
C219     C      0.597970000000     0.661500000000     0.004070000000    -0.00270804 
C220     C      0.653310000000     0.609350000000     0.005870000000    -0.00189535 
C221     C      0.717240000000     0.730430000000     0.027990000000    -0.0525422  
C222     C      0.739210000000     0.750510000000     0.949720000000    -0.0542789  
C223     C      0.698410000000     0.711410000000     0.995710000000     0.0578372  
C224     C      0.629050000000     0.691210000000     0.988210000000    -0.0336994  
C225     C      0.758220000000     0.769330000000     0.982010000000     0.0588888  
C226     C      0.828420000000     0.785700000000     0.989410000000    -0.0461033  
C227     C      0.746880000000     0.759160000000     0.021350000000    -0.0551988  
C228     C      0.861360000000     0.813690000000     0.973890000000     0.0412962  
C229     C      0.808770000000     0.869050000000     0.972580000000    -0.00534879 
C230     C      0.709530000000     0.721790000000     0.956360000000    -0.0560675  
C231     C      0.694710000000     0.340600000000     0.974490000000    -0.0307157  
C232     C      0.788520000000     0.141430000000     0.979590000000    -0.03195    
C233     C      0.872340000000     0.160100000000     0.964330000000    -0.00680701 
C234     C      0.816450000000     0.108380000000     0.964820000000    -0.00684656 
C235     C      0.755120000000     0.230330000000     0.938220000000    -0.054309   
C236     C      0.733370000000     0.253030000000     0.015830000000    -0.0526895  
C237     C      0.772980000000     0.211480000000     0.971130000000     0.0593431  
C238     C      0.841770000000     0.190580000000     0.979300000000    -0.0318814  
C239     C      0.715240000000     0.271610000000     0.982930000000     0.0593595  
C240     C      0.645240000000     0.287850000000     0.975220000000    -0.0437515  
C241     C      0.726450000000     0.260190000000     0.943930000000    -0.0565648  
C242     C      0.612630000000     0.315540000000     0.991460000000     0.0405663  
C243     C      0.664820000000     0.371580000000     0.990160000000    -0.0079254  
C244     C      0.762070000000     0.223220000000     0.010130000000    -0.0552832  
C245     C      0.276550000000     0.626470000000     0.985340000000    -0.0318934  
C246     C      0.183640000000     0.825950000000     0.997940000000    -0.0315534  
C247     C      0.098960000000     0.806680000000     0.988850000000    -0.0124524  
C248     C      0.155010000000     0.858820000000     0.984050000000    -0.00718055 
C249     C      0.214130000000     0.737110000000     0.954920000000    -0.0545095  
C250     C      0.240940000000     0.713870000000     0.030750000000    -0.0520803  
C251     C      0.198560000000     0.755790000000     0.989070000000     0.0598317  
C252     C      0.130750000000     0.777090000000     0.002880000000    -0.0241576  
C253     C      0.256630000000     0.695310000000     0.996590000000     0.0581363  
C254     C      0.326110000000     0.679100000000     0.985220000000    -0.0448413  
C255     C      0.243020000000     0.707140000000     0.958500000000    -0.0559671  
C256     C      0.359290000000     0.651060000000     0.999580000000     0.0408378  
C257     C      0.307040000000     0.595030000000     0.998800000000    -0.00758729 
C258     C      0.212140000000     0.743910000000     0.027170000000    -0.0556917  
C259     C      0.191530000000     0.129150000000     0.997180000000    -0.0323415  
C260     C      0.289770000000     0.324450000000     0.983160000000    -0.0307228  
C261     C      0.373420000000     0.305480000000     0.999260000000    -0.00922868 
C262     C      0.317730000000     0.357550000000     0.997490000000    -0.00867799 
C263     C      0.252500000000     0.239890000000     0.026840000000    -0.0525436  
C264     C      0.234100000000     0.212000000000     0.950070000000    -0.0543079  
C265     C      0.273120000000     0.255200000000     0.993690000000     0.0582663  
C266     C      0.342470000000     0.274840000000     0.985230000000    -0.0306847  
C267     C      0.213550000000     0.196650000000     0.983210000000     0.0595824  
C268     C      0.142810000000     0.181500000000     0.986590000000    -0.0458257  
C269     C      0.222830000000     0.210910000000     0.021770000000    -0.0554352  
C270     C      0.111420000000     0.152160000000     0.970530000000     0.0416219  
C271     C      0.163160000000     0.096790000000     0.981880000000    -0.00817034 
C272     C      0.263570000000     0.241140000000     0.955100000000    -0.0560617  
C273     C      0.689170000000     0.990840000000     0.632650000000    -0.0366032  
C274     C      0.785890000000     0.988040000000     0.830520000000    -0.0320079  
C275     C      0.868460000000     0.969260000000     0.809440000000    -0.00738235 
C276     C      0.813920000000     0.971130000000     0.862550000000    -0.00705165 
C277     C      0.747740000000     0.950170000000     0.741900000000    -0.0546512  
C278     C      0.729260000000     0.028920000000     0.720670000000    -0.0521787  
C279     C      0.767890000000     0.981790000000     0.760620000000     0.0591661  
C280     C      0.837760000000     0.986210000000     0.779910000000    -0.0319113  
C281     C      0.709000000000     0.997290000000     0.702050000000     0.0571622  
C282     C      0.638740000000     0.992680000000     0.684800000000    -0.0491214  
C283     C      0.718550000000     0.957710000000     0.712850000000    -0.0557489  
C284     C      0.606780000000     0.008670000000     0.655870000000     0.0445189  
C285     C      0.660060000000     0.007230000000     0.601300000000    -0.00172263 
C286     C      0.758480000000     0.021380000000     0.749710000000    -0.0555139  
C287     C      0.140630000000     0.972770000000     0.786420000000    -0.0309668  
C288     C      0.337730000000     0.988480000000     0.690260000000    -0.0319551  
C289     C      0.315500000000     0.967440000000     0.608440000000    -0.00654407 
C290     C      0.370220000000     0.974500000000     0.661270000000    -0.00649681 
C291     C      0.253760000000     0.942270000000     0.730260000000    -0.0543151  
C292     C      0.225410000000     0.018720000000     0.748860000000    -0.0527207  
C293     C      0.269460000000     0.975580000000     0.710290000000     0.059627   
C294     C      0.285870000000     0.981840000000     0.640110000000    -0.0319213  
C295     C      0.209560000000     0.985400000000     0.768650000000     0.0594887  
C296     C      0.190700000000     0.979030000000     0.838380000000    -0.0438504  
C297     C      0.224030000000     0.947000000000     0.759260000000    -0.0564595  
C298     C      0.160150000000     0.994230000000     0.869000000000     0.0401301  
C299     C      0.107220000000     0.987140000000     0.814160000000    -0.00747617 
C300     C      0.255140000000     0.014000000000     0.719870000000    -0.0552987  
C301     C      0.283770000000     0.982630000000     0.333380000000    -0.0327611  
C302     C      0.183610000000     0.006800000000     0.140850000000    -0.0268624  
C303     C      0.103690000000     0.978370000000     0.161880000000    -0.00829127 
C304     C      0.157430000000     0.987940000000     0.108290000000    -0.0114243  
C305     C      0.233960000000     0.967780000000     0.217280000000    -0.0528563  
C306     C      0.234250000000     0.039010000000     0.261110000000    -0.0554981  
C307     C      0.204550000000     0.996600000000     0.209580000000     0.057711   
C308     C      0.133290000000     0.996720000000     0.191830000000    -0.031571   
C309     C      0.262680000000     0.009410000000     0.269900000000     0.0621627  
C310     C      0.331570000000     0.018630000000     0.291180000000    -0.0410414  
C311     C      0.262970000000     0.974130000000     0.246740000000    -0.0588117  
C312     C      0.360000000000     0.024870000000     0.327210000000     0.0362274  
C313     C      0.308740000000     0.990480000000     0.370700000000    -0.00581016 
C314     C      0.205730000000     0.033020000000     0.230850000000    -0.0537928  
C315     C      0.684700000000     0.987330000000     0.330650000000    -0.0334315  
C316     C      0.780110000000     0.984960000000     0.132120000000    -0.0334558  
C317     C      0.862110000000     0.002980000000     0.155840000000    -0.0034522  
C318     C      0.809320000000     0.001450000000     0.100910000000    -0.00283269 
C319     C      0.740320000000     0.023890000000     0.219390000000    -0.0526039  
C320     C      0.722360000000     0.945680000000     0.242950000000    -0.0542145  
C321     C      0.760480000000     0.991800000000     0.201530000000     0.0585058  
C322     C      0.830540000000     0.986050000000     0.184190000000    -0.0331041  
C323     C      0.702540000000     0.977800000000     0.261130000000     0.0591936  
C324     C      0.632830000000     0.981420000000     0.280290000000    -0.0461541  
C325     C      0.711480000000     0.017090000000     0.248880000000    -0.0551853  
C326     C      0.602530000000     0.965170000000     0.310680000000     0.0418999  
C327     C      0.657160000000     0.971610000000     0.363650000000    -0.00532072 
C328     C      0.751070000000     0.952480000000     0.213300000000    -0.0562499  
C329     C      0.985840000000     0.323540000000     0.680820000000    -0.0331477  
C330     C      0.986890000000     0.125830000000     0.776810000000    -0.033532   
C331     C      0.004810000000     0.151100000000     0.858440000000    -0.00344229 
C332     C      0.003180000000     0.095260000000     0.806790000000    -0.00275113 
C333     C      0.025660000000     0.213330000000     0.736020000000    -0.0523826  
C334     C      0.947200000000     0.234640000000     0.716270000000    -0.0542064  
C335     C      0.993640000000     0.194780000000     0.755710000000     0.0583289  
C336     C      0.988150000000     0.178900000000     0.826190000000    -0.0331002  
C337     C      0.979230000000     0.253470000000     0.696880000000     0.0591616  
C338     C      0.985300000000     0.274350000000     0.627590000000    -0.0459068  
C339     C      0.018660000000     0.242440000000     0.706820000000    -0.0551974  
C340     C      0.969260000000     0.304640000000     0.597000000000     0.0418801  
C341     C      0.969470000000     0.356240000000     0.653380000000    -0.00515798 
C342     C      0.954200000000     0.205510000000     0.745470000000    -0.0562123  
C343     C      0.980950000000     0.824360000000     0.788870000000    -0.0307046  
C344     C      0.987630000000     0.625370000000     0.695050000000    -0.0318652  
C345     C      0.979600000000     0.651090000000     0.611950000000    -0.0079062  
C346     C      0.974040000000     0.594990000000     0.663590000000    -0.0068468  
C347     C      0.945980000000     0.713980000000     0.730410000000    -0.0540911  
C348     C      0.022020000000     0.734170000000     0.758900000000    -0.0529228  
C349     C      0.979730000000     0.694500000000     0.715000000000     0.0596574  
C350     C      0.993510000000     0.678140000000     0.645950000000    -0.0312186  
C351     C      0.988320000000     0.754000000000     0.773920000000     0.0596579  
C352     C      0.975510000000     0.775590000000     0.841990000000    -0.0434079  
C353     C      0.950090000000     0.743490000000     0.759720000000    -0.056493   
C354     C      0.990770000000     0.804940000000     0.873700000000     0.0404419  
C355     C      0.995730000000     0.856880000000     0.817460000000    -0.00762579 
C356     C      0.017900000000     0.704610000000     0.729660000000    -0.055339   
C357     C      0.983580000000     0.690990000000     0.341870000000    -0.0318527  
C358     C      0.984550000000     0.787430000000     0.144120000000    -0.0317912  
C359     C      0.968080000000     0.870800000000     0.163660000000    -0.00710675 
C360     C      0.968200000000     0.815200000000     0.111650000000    -0.00704105 
C361     C      0.946130000000     0.750730000000     0.232250000000    -0.0546982  
C362     C      0.024540000000     0.732570000000     0.255140000000    -0.0521824  
C363     C      0.978120000000     0.770940000000     0.214220000000     0.0594321  
C364     C      0.984240000000     0.840270000000     0.193740000000    -0.0318422  
C365     C      0.992560000000     0.712330000000     0.273130000000     0.0578155  
C366     C      0.989430000000     0.641810000000     0.288950000000    -0.0489778  
C367     C      0.953150000000     0.721580000000     0.261410000000    -0.0559062  
C368     C      0.006040000000     0.610090000000     0.317660000000     0.045665   
C369     C      0.999960000000     0.662020000000     0.373300000000    -0.00818779 
C370     C      0.017530000000     0.761610000000     0.225860000000    -0.0555339  
C371     C      0.991010000000     0.191950000000     0.128170000000    -0.0332623  
C372     C      0.978680000000     0.287740000000     0.325790000000    -0.0292681  
C373     C      0.996200000000     0.371210000000     0.307460000000    -0.00910791 
C374     C      0.993130000000     0.315150000000     0.359370000000    -0.00915049 
C375     C      0.023050000000     0.252770000000     0.239360000000    -0.0532037  
C376     C      0.946220000000     0.232530000000     0.213100000000    -0.0539101  
C377     C      0.989720000000     0.271780000000     0.256200000000     0.0596995  
C378     C      0.981640000000     0.340760000000     0.276620000000    -0.0293699  
C379     C      0.979530000000     0.213300000000     0.196510000000     0.0592996  
C380     C      0.986140000000     0.142960000000     0.181270000000    -0.0459902  
C381     C      0.018130000000     0.223710000000     0.209730000000    -0.0551772  
C382     C      0.970570000000     0.110600000000     0.152860000000     0.041835   
C383     C      0.976250000000     0.162230000000     0.096630000000    -0.00551126 
C384     C      0.951130000000     0.261580000000     0.242730000000    -0.0567373  
H1       H      0.924840000000     0.930580000000     0.043510000000     0.208199   
H2       H      0.042810000000     0.041770000000     0.041920000000     0.208993   
H3       H      0.931140000000     0.040000000000     0.923920000000     0.209507   
H4       H      0.042380000000     0.922820000000     0.931890000000     0.209119   
H5       H      0.931760000000     0.545630000000     0.429530000000     0.207914   
H6       H      0.042160000000     0.426390000000     0.426690000000     0.208413   
H7       H      0.925120000000     0.426370000000     0.539590000000     0.208902   
H8       H      0.045060000000     0.535820000000     0.546120000000     0.20653    
H9       H      0.428480000000     0.920880000000     0.431020000000     0.206442   
H10      H      0.538840000000     0.040760000000     0.422750000000     0.205884   
H11      H      0.545940000000     0.932140000000     0.543950000000     0.206869   
H12      H      0.425650000000     0.041410000000     0.539720000000     0.208012   
H13      H      0.425570000000     0.535780000000     0.045160000000     0.210679   
H14      H      0.430700000000     0.424700000000     0.927040000000     0.206087   
H15      H      0.545770000000     0.427290000000     0.042170000000     0.209076   
H16      H      0.540170000000     0.544700000000     0.931040000000     0.210795   
H17      H      0.426840000000     0.242020000000     0.178350000000     0.0403784  
H18      H      0.505930000000     0.123130000000     0.250440000000     0.0344264  
H19      H      0.427610000000     0.193580000000     0.321750000000     0.0367581  
H20      H      0.540200000000     0.307820000000     0.107000000000     0.0382995  
H21      H      0.462640000000     0.076090000000     0.284360000000     0.0402248  
H22      H      0.475050000000     0.333160000000     0.214590000000     0.0333131  
H23      H      0.505520000000     0.247740000000     0.125920000000     0.03451    
H24      H      0.470110000000     0.386300000000     0.162030000000     0.039149   
H25      H      0.426780000000     0.140500000000     0.374990000000     0.0311228  
H26      H      0.415450000000     0.186390000000     0.224870000000     0.0436194  
H27      H      0.511560000000     0.072720000000     0.306310000000     0.0358847  
H28      H      0.540740000000     0.265340000000     0.234390000000     0.0433823  
H29      H      0.524080000000     0.143250000000     0.297200000000     0.0356475  
H30      H      0.499770000000     0.300490000000     0.072500000000     0.0410421  
H31      H      0.439900000000     0.321380000000     0.175350000000     0.0376453  
H32      H      0.457450000000     0.272200000000     0.124020000000     0.0367816  
H33      H      0.528130000000     0.211290000000     0.282550000000     0.0398954  
H34      H      0.477200000000     0.183050000000     0.339900000000     0.0406135  
H35      H      0.519780000000     0.367090000000     0.169130000000     0.0366987  
H36      H      0.368990000000     0.146270000000     0.302620000000     0.0289795  
H37      H      0.541910000000     0.696530000000     0.208880000000     0.040641   
H38      H      0.483520000000     0.830380000000     0.258300000000     0.0342814  
H39      H      0.495530000000     0.744330000000     0.350720000000     0.0393865  
H40      H      0.435280000000     0.655470000000     0.109560000000     0.0391949  
H41      H      0.522670000000     0.863600000000     0.308180000000     0.0408277  
H42      H      0.478540000000     0.617530000000     0.224120000000     0.0339871  
H43      H      0.471970000000     0.710250000000     0.137890000000     0.0342171  
H44      H      0.488860000000     0.567260000000     0.169280000000     0.0411177  
H45      H      0.485690000000     0.798860000000     0.402210000000     0.0300337  
H46      H      0.551240000000     0.748330000000     0.260160000000     0.0439049  
H47      H      0.473260000000     0.884270000000     0.309590000000     0.0383159  
H48      H      0.414350000000     0.700680000000     0.227970000000     0.0437682  
H49      H      0.442780000000     0.821250000000     0.292520000000     0.035559   
H50      H      0.481540000000     0.660330000000     0.082720000000     0.0408723  
H51      H      0.520920000000     0.627810000000     0.192290000000     0.0384308  
H52      H      0.517070000000     0.680960000000     0.142490000000     0.0372509  
H53      H      0.423740000000     0.752150000000     0.279580000000     0.0397734  
H54      H      0.450110000000     0.772540000000     0.345610000000     0.0382803  
H55      H      0.440170000000     0.589800000000     0.169960000000     0.0362267  
H56      H      0.570820000000     0.810000000000     0.342360000000     0.0388874  
H57      H      0.546290000000     0.773940000000     0.715480000000     0.0397969  
H58      H      0.486900000000     0.720410000000     0.849810000000     0.0335653  
H59      H      0.492290000000     0.634280000000     0.756870000000     0.0401173  
H60      H      0.446100000000     0.878170000000     0.667910000000     0.0389093  
H61      H      0.523030000000     0.665840000000     0.879140000000     0.0354072  
H62      H      0.482040000000     0.757610000000     0.637270000000     0.0338233  
H63      H      0.480420000000     0.849750000000     0.724270000000     0.0336717  
H64      H      0.495250000000     0.808240000000     0.583510000000     0.0381497  
H65      H      0.478520000000     0.579830000000     0.807860000000     0.0335631  
H66      H      0.553170000000     0.721240000000     0.766270000000     0.0434933  
H67      H      0.473640000000     0.665830000000     0.899950000000     0.0385497  
H68      H      0.417970000000     0.761260000000     0.719750000000     0.0441095  
H69      H      0.443980000000     0.689740000000     0.838640000000     0.0366989  
H70      H      0.494720000000     0.900630000000     0.670080000000     0.0377263  
H71      H      0.526050000000     0.787660000000     0.645540000000     0.035812   
H72      H      0.525230000000     0.840420000000     0.695750000000     0.0353022  
H73      H      0.424870000000     0.708480000000     0.770460000000     0.0402471  
H74      H      0.447460000000     0.640250000000     0.785800000000     0.0403269  
H75      H      0.446580000000     0.811520000000     0.605800000000     0.0389078  
H76      H      0.568670000000     0.631260000000     0.820350000000     0.0366072  
H77      H      0.428900000000     0.271790000000     0.762390000000     0.0396813  
H78      H      0.475470000000     0.223310000000     0.618940000000     0.0335776  
H79      H      0.478700000000     0.136260000000     0.711160000000     0.0401452  
H80      H      0.533950000000     0.374230000000     0.803210000000     0.0377516  
H81      H      0.437790000000     0.168100000000     0.592370000000     0.0354742  
H82      H      0.499430000000     0.255030000000     0.834270000000     0.0337999  
H83      H      0.495050000000     0.348140000000     0.748330000000     0.0335827  
H84      H      0.489960000000     0.305110000000     0.889570000000     0.0379458  
H85      H      0.488290000000     0.082550000000     0.659360000000     0.0338004  
H86      H      0.417440000000     0.221630000000     0.709880000000     0.0431274  
H87      H      0.485090000000     0.169260000000     0.567140000000     0.0379418  
H88      H      0.556240000000     0.261380000000     0.744470000000     0.0437946  
H89      H      0.519650000000     0.193240000000     0.626070000000     0.0369776  
H90      H      0.486150000000     0.398570000000     0.803020000000     0.0385592  
H91      H      0.454730000000     0.284830000000     0.829520000000     0.0358253  
H92      H      0.452260000000     0.338860000000     0.779890000000     0.0358417  
H93      H      0.544770000000     0.211250000000     0.691950000000     0.0404538  
H94      H      0.521020000000     0.142840000000     0.678720000000     0.0412763  
H95      H      0.536680000000     0.309340000000     0.863500000000     0.0381853  
H96      H      0.398040000000     0.135100000000     0.656080000000     0.0367679  
H97      H      0.695130000000     0.212360000000     0.416020000000     0.0396983  
H98      H      0.747030000000     0.350500000000     0.471470000000     0.0336735  
H99      H      0.832810000000     0.257190000000     0.468040000000     0.039954   
H100     H      0.589550000000     0.169420000000     0.516670000000     0.0386257  
H101     H      0.802490000000     0.378410000000     0.435140000000     0.0371503  
H102     H      0.710910000000     0.137510000000     0.484800000000     0.0337208  
H103     H      0.618300000000     0.223790000000     0.479650000000     0.0334616  
H104     H      0.660630000000     0.082860000000     0.473380000000     0.037852   
H105     H      0.887430000000     0.307620000000     0.481010000000     0.0325709  
H106     H      0.747140000000     0.263580000000     0.407560000000     0.0433509  
H107     H      0.801640000000     0.400630000000     0.483940000000     0.0377506  
H108     H      0.705670000000     0.222820000000     0.544300000000     0.0438765  
H109     H      0.777310000000     0.340090000000     0.514920000000     0.0360862  
H110     H      0.567960000000     0.168810000000     0.467550000000     0.0370519  
H111     H      0.681740000000     0.143170000000     0.439740000000     0.0356327  
H112     H      0.628650000000     0.192810000000     0.436710000000     0.035167   
H113     H      0.757900000000     0.273760000000     0.535850000000     0.0400367  
H114     H      0.826850000000     0.286670000000     0.512550000000     0.0400614  
H115     H      0.656460000000     0.107610000000     0.520810000000     0.0389576  
H116     H      0.834860000000     0.318010000000     0.391160000000     0.0373794  
H117     H      0.714090000000     0.774560000000     0.547730000000     0.0398283  
H118     H      0.758400000000     0.635480000000     0.493840000000     0.0337412  
H119     H      0.850770000000     0.722300000000     0.494120000000     0.0391776  
H120     H      0.607140000000     0.810340000000     0.445990000000     0.0420415  
H121     H      0.811320000000     0.604050000000     0.530650000000     0.038844   
H122     H      0.724460000000     0.850110000000     0.479600000000     0.0334116  
H123     H      0.638020000000     0.757580000000     0.483500000000     0.0341682  
H124     H      0.670050000000     0.901060000000     0.491990000000     0.0374342  
H125     H      0.901820000000     0.667670000000     0.484440000000     0.0298715  
H126     H      0.765030000000     0.722300000000     0.556250000000     0.0436767  
H127     H      0.809340000000     0.581230000000     0.482200000000     0.0380972  
H128     H      0.723130000000     0.762440000000     0.419470000000     0.0439304  
H129     H      0.789160000000     0.642510000000     0.450070000000     0.0354929  
H130     H      0.583800000000     0.808200000000     0.494290000000     0.0392338  
H131     H      0.695750000000     0.841900000000     0.524560000000     0.035382   
H132     H      0.645710000000     0.789110000000     0.526630000000     0.0356716  
H133     H      0.774380000000     0.710440000000     0.428020000000     0.0397012  
H134     H      0.842700000000     0.691450000000     0.450850000000     0.0383242  
H135     H      0.668190000000     0.877060000000     0.444030000000     0.0385155  
H136     H      0.846130000000     0.663570000000     0.573040000000     0.0393372  
H137     H      0.259960000000     0.191860000000     0.537610000000     0.0399394  
H138     H      0.212270000000     0.329620000000     0.489720000000     0.0336073  
H139     H      0.118740000000     0.243990000000     0.490490000000     0.0396647  
H140     H      0.357610000000     0.151720000000     0.427340000000     0.037656   
H141     H      0.159750000000     0.360120000000     0.528390000000     0.0375241  
H142     H      0.244930000000     0.115150000000     0.473550000000     0.0338256  
H143     H      0.330630000000     0.208070000000     0.463710000000     0.0333522  
H144     H      0.299910000000     0.065000000000     0.483220000000     0.0385617  
H145     H      0.068600000000     0.299530000000     0.480220000000     0.0312948  
H146     H      0.209400000000     0.243800000000     0.549420000000     0.0433363  
H147     H      0.162330000000     0.384800000000     0.480810000000     0.0375408  
H148     H      0.241590000000     0.202840000000     0.410240000000     0.0433411  
H149     H      0.180640000000     0.323880000000     0.446350000000     0.0359234  
H150     H      0.386030000000     0.158890000000     0.472360000000     0.0385421  
H151     H      0.277220000000     0.125840000000     0.515490000000     0.0362597  
H152     H      0.327320000000     0.179870000000     0.509660000000     0.0363994  
H153     H      0.191320000000     0.255060000000     0.422040000000     0.0396847  
H154     H      0.126670000000     0.274690000000     0.447120000000     0.0385887  
H155     H      0.299330000000     0.087830000000     0.434590000000     0.0375779  
H156     H      0.122600000000     0.301000000000     0.569790000000     0.037207   
H157     H      0.279790000000     0.753820000000     0.436950000000     0.0398076  
H158     H      0.224930000000     0.617430000000     0.493950000000     0.0340166  
H159     H      0.139530000000     0.710260000000     0.481270000000     0.0394669  
H160     H      0.377530000000     0.802600000000     0.542100000000     0.0379715  
H161     H      0.173010000000     0.588160000000     0.454100000000     0.0411481  
H162     H      0.259130000000     0.831020000000     0.502410000000     0.0336146  
H163     H      0.352330000000     0.745190000000     0.506430000000     0.0336907  
H164     H      0.309140000000     0.885510000000     0.491530000000     0.0379906  
H165     H      0.084060000000     0.659920000000     0.490500000000     0.031031   
H166     H      0.228780000000     0.701980000000     0.426870000000     0.0437116  
H167     H      0.169350000000     0.567470000000     0.503450000000     0.0377774  
H168     H      0.260810000000     0.747730000000     0.564570000000     0.0438021  
H169     H      0.191150000000     0.628930000000     0.534450000000     0.0353625  
H170     H      0.403120000000     0.799270000000     0.494990000000     0.0382924  
H171     H      0.290330000000     0.823530000000     0.458970000000     0.0360793  
H172     H      0.344370000000     0.773660000000     0.461260000000     0.0357689  
H173     H      0.209500000000     0.696120000000     0.554420000000     0.0397462  
H174     H      0.141960000000     0.681690000000     0.526720000000     0.0386002  
H175     H      0.312660000000     0.861910000000     0.539650000000     0.0379211  
H176     H      0.143540000000     0.644750000000     0.405690000000     0.0386311  
H177     H      0.767840000000     0.550770000000     0.266670000000     0.0396908  
H178     H      0.717470000000     0.501330000000     0.128980000000     0.0336458  
H179     H      0.628760000000     0.496430000000     0.219660000000     0.0393368  
H180     H      0.873410000000     0.447910000000     0.305040000000     0.0389086  
H181     H      0.661030000000     0.536890000000     0.101840000000     0.0375951  
H182     H      0.754530000000     0.482800000000     0.340950000000     0.0335277  
H183     H      0.843990000000     0.485240000000     0.251080000000     0.03344    
H184     H      0.806870000000     0.493470000000     0.393690000000     0.0380893  
H185     H      0.576390000000     0.483180000000     0.166750000000     0.0304523  
H186     H      0.715050000000     0.560120000000     0.216350000000     0.0432726  
H187     H      0.665440000000     0.489880000000     0.076460000000     0.0379918  
H188     H      0.757560000000     0.422900000000     0.253650000000     0.0437965  
H189     H      0.688770000000     0.456200000000     0.136100000000     0.0360869  
H190     H      0.896640000000     0.496240000000     0.303880000000     0.0375877  
H191     H      0.784380000000     0.527180000000     0.333890000000     0.035645   
H192     H      0.835790000000     0.528610000000     0.282090000000     0.0354461  
H193     H      0.704920000000     0.432220000000     0.203270000000     0.0398245  
H194     H      0.637590000000     0.453650000000     0.188410000000     0.0387103  
H195     H      0.809530000000     0.446000000000     0.368910000000     0.0383221  
H196     H      0.624980000000     0.575600000000     0.162910000000     0.0373831  
H197     H      0.269260000000     0.533310000000     0.201690000000     0.0401117  
H198     H      0.131030000000     0.486110000000     0.253680000000     0.034199   
H199     H      0.220850000000     0.488530000000     0.343310000000     0.0393651  
H200     H      0.308400000000     0.425610000000     0.102040000000     0.0377362  
H201     H      0.103290000000     0.526160000000     0.306540000000     0.0408908  
H202     H      0.343460000000     0.464530000000     0.218510000000     0.0335961  
H203     H      0.253340000000     0.463710000000     0.129170000000     0.0337482  
H204     H      0.396110000000     0.472800000000     0.166090000000     0.0384727  
H205     H      0.167630000000     0.480650000000     0.396370000000     0.0305071  
H206     H      0.218570000000     0.545900000000     0.253390000000     0.0437428  
H207     H      0.078110000000     0.478850000000     0.306290000000     0.0387212  
H208     H      0.255780000000     0.406300000000     0.219480000000     0.0436636  
H209     H      0.137950000000     0.443580000000     0.286160000000     0.03587    
H210     H      0.305320000000     0.472350000000     0.075850000000     0.038592   
H211     H      0.336440000000     0.508140000000     0.187500000000     0.0364219  
H212     H      0.283920000000     0.507700000000     0.135530000000     0.0362473  
H213     H      0.205160000000     0.418920000000     0.271290000000     0.0397737  
H214     H      0.189420000000     0.445340000000     0.337850000000     0.038498   
H215     H      0.370050000000     0.425970000000     0.163470000000     0.0376961  
H216     H      0.160930000000     0.568260000000     0.339560000000     0.0384745  
H217     H      0.199880000000     0.534480000000     0.704620000000     0.0397315  
H218     H      0.252570000000     0.486120000000     0.843010000000     0.0335304  
H219     H      0.341450000000     0.490690000000     0.752520000000     0.0393413  
H220     H      0.100940000000     0.426540000000     0.664310000000     0.0382074  
H221     H      0.305630000000     0.525740000000     0.871260000000     0.0375129  
H222     H      0.217510000000     0.466000000000     0.630010000000     0.0334927  
H223     H      0.127570000000     0.464790000000     0.719520000000     0.0335703  
H224     H      0.165460000000     0.474050000000     0.576910000000     0.0384061  
H225     H      0.394730000000     0.481110000000     0.805320000000     0.0305032  
H226     H      0.251420000000     0.546980000000     0.755550000000     0.043149   
H227     H      0.305460000000     0.477930000000     0.895460000000     0.0374782  
H228     H      0.218260000000     0.407480000000     0.717250000000     0.0435706  
H229     H      0.285030000000     0.443790000000     0.835030000000     0.0357537  
H230     H      0.074670000000     0.473240000000     0.666990000000     0.0384151  
H231     H      0.186240000000     0.509440000000     0.636840000000     0.0360332  
H232     H      0.134000000000     0.508760000000     0.688920000000     0.0359253  
H233     H      0.269900000000     0.419980000000     0.768020000000     0.0395977  
H234     H      0.336280000000     0.446730000000     0.782930000000     0.0384017  
H235     H      0.163020000000     0.427150000000     0.602850000000     0.0377023  
H236     H      0.338140000000     0.568770000000     0.810500000000     0.0370768  
H237     H      0.755500000000     0.504340000000     0.806820000000     0.0388747  
H238     H      0.829860000000     0.461210000000     0.708500000000     0.0318731  
H239     H      0.767930000000     0.544550000000     0.634580000000     0.0386426  
H240     H      0.591290000000     0.508250000000     0.797600000000     0.0408005  
H241     H      0.880110000000     0.500400000000     0.673650000000     0.0383051  
H242     H      0.705250000000     0.543420000000     0.837320000000     0.0326824  
H243     H      0.638290000000     0.466560000000     0.760900000000     0.0321653  
H244     H      0.658540000000     0.525690000000     0.894230000000     0.0380686  
H245     H      0.813990000000     0.524600000000     0.577150000000     0.032228   
H246     H      0.806810000000     0.507100000000     0.756220000000     0.0412958  
H247     H      0.879710000000     0.449960000000     0.655010000000     0.0336986  
H248     H      0.664770000000     0.511090000000     0.714540000000     0.0420309  
H249     H      0.806480000000     0.445630000000     0.662660000000     0.0376763  
H250     H      0.587840000000     0.457110000000     0.814050000000     0.0380001  
H251     H      0.701220000000     0.490560000000     0.848330000000     0.0360076  
H252     H      0.660670000000     0.447750000000     0.806020000000     0.0388633  
H253     H      0.715950000000     0.506870000000     0.663890000000     0.0390552  
H254     H      0.769560000000     0.492250000000     0.621900000000     0.0382243  
H255     H      0.638160000000     0.556610000000     0.855620000000     0.0349754  
H256     H      0.857840000000     0.575470000000     0.657190000000     0.0380212  
H257     H      0.695540000000     0.707480000000     0.930880000000     0.0395948  
H258     H      0.748390000000     0.846930000000     0.977720000000     0.0337161  
H259     H      0.835140000000     0.754470000000     0.979950000000     0.0394709  
H260     H      0.593650000000     0.666900000000     0.036650000000     0.03786    
H261     H      0.803900000000     0.872870000000     0.939850000000     0.0374248  
H262     H      0.712390000000     0.634660000000     0.000780000000     0.0357429  
H263     H      0.620350000000     0.721770000000     0.998130000000     0.0339393  
H264     H      0.661810000000     0.580290000000     0.992120000000     0.0363539  
H265     H      0.889180000000     0.806170000000     0.990540000000     0.0302422  
H266     H      0.747630000000     0.758000000000     0.919310000000     0.0433621  
H267     H      0.802270000000     0.898280000000     0.987060000000     0.0369428  
H268     H      0.709070000000     0.722690000000     0.058410000000     0.043339   
H269     H      0.778600000000     0.839430000000     0.021820000000     0.0371995  
H270     H      0.568980000000     0.667680000000     0.988930000000     0.0362039  
H271     H      0.682030000000     0.640050000000     0.956450000000     0.0368237  
H272     H      0.628780000000     0.690640000000     0.954850000000     0.0364512  
H273     H      0.761090000000     0.773220000000     0.046840000000     0.0396099  
H274     H      0.828680000000     0.786250000000     0.022770000000     0.0399402  
H275     H      0.657860000000     0.606570000000     0.038750000000     0.036913   
H276     H      0.837110000000     0.810500000000     0.899930000000     0.0374029  
H277     H      0.775460000000     0.209160000000     0.036060000000     0.0401879  
H278     H      0.725210000000     0.349390000000     0.984590000000     0.0330481  
H279     H      0.638890000000     0.256560000000     0.984790000000     0.0392426  
H280     H      0.876560000000     0.164350000000     0.931560000000     0.0356062  
H281     H      0.670860000000     0.376880000000     0.022480000000     0.0369098  
H282     H      0.757710000000     0.134710000000     0.968830000000     0.0339278  
H283     H      0.850830000000     0.220710000000     0.968400000000     0.0335035  
H284     H      0.807900000000     0.080050000000     0.980020000000     0.0386192  
H285     H      0.584380000000     0.307710000000     0.975680000000     0.0313623  
H286     H      0.724880000000     0.261460000000     0.045980000000     0.0433739  
H287     H      0.670310000000     0.400250000000     0.974220000000     0.0386934  
H288     H      0.763280000000     0.221600000000     0.908070000000     0.0434004  
H289     H      0.694390000000     0.340840000000     0.941130000000     0.0364931  
H290     H      0.901440000000     0.166580000000     0.979120000000     0.0385077  
H291     H      0.788110000000     0.141350000000     0.012950000000     0.0386409  
H292     H      0.842100000000     0.191040000000     0.012660000000     0.0383809  
H293     H      0.712730000000     0.274000000000     0.918030000000     0.0400536  
H294     H      0.644420000000     0.288410000000     0.941860000000     0.039542   
H295     H      0.811630000000     0.104090000000     0.932140000000     0.0356578  
H296     H      0.638820000000     0.314590000000     0.064810000000     0.0371709  
H297     H      0.200650000000     0.757970000000     0.054000000000     0.040164   
H298     H      0.246510000000     0.617450000000     0.996560000000     0.0333195  
H299     H      0.332910000000     0.710180000000     0.995130000000     0.0393248  
H300     H      0.091600000000     0.799950000000     0.957160000000     0.0413297  
H301     H      0.302240000000     0.588620000000     0.031130000000     0.0368292  
H302     H      0.213780000000     0.832280000000     0.985220000000     0.0337178  
H303     H      0.121100000000     0.746450000000     0.994120000000     0.0322324  
H304     H      0.163520000000     0.887140000000     0.999300000000     0.0382293  
H305     H      0.386960000000     0.659240000000     0.982960000000     0.031316   
H306     H      0.251410000000     0.705230000000     0.060210000000     0.0431787  
H307     H      0.300950000000     0.566890000000     0.982130000000     0.0382956  
H308     H      0.203990000000     0.746050000000     0.925440000000     0.0438829  
H309     H      0.275380000000     0.627080000000     0.952010000000     0.0362881  
H310     H      0.071370000000     0.801680000000     0.006800000000     0.0423929  
H311     H      0.186120000000     0.826740000000     0.031210000000     0.0377119  
H312     H      0.132950000000     0.778130000000     0.036160000000     0.0356175  
H313     H      0.254980000000     0.693510000000     0.931650000000     0.0398058  
H314     H      0.325500000000     0.679200000000     0.951840000000     0.0397759  
H315     H      0.159210000000     0.863550000000     0.951340000000     0.0363413  
H316     H      0.335910000000     0.649650000000     0.073860000000     0.0372322  
H317     H      0.278680000000     0.252850000000     0.928940000000     0.039526   
H318     H      0.222800000000     0.119450000000     0.991050000000     0.0339421  
H319     H      0.137610000000     0.211610000000     0.973280000000     0.0394581  
H320     H      0.378070000000     0.301780000000     0.032030000000     0.0402548  
H321     H      0.172210000000     0.088660000000     0.950980000000     0.0415529  
H322     H      0.258880000000     0.331770000000     0.993280000000     0.0332154  
H323     H      0.351140000000     0.244970000000     0.997110000000     0.0334328  
H324     H      0.309530000000     0.385540000000     0.981470000000     0.0378819  
H325     H      0.081970000000     0.161300000000     0.983050000000     0.0301826  
H326     H      0.227010000000     0.201450000000     0.920230000000     0.0437158  
H327     H      0.167120000000     0.069750000000     0.000890000000     0.0396388  
H328     H      0.259290000000     0.250720000000     0.056640000000     0.0434786  
H329     H      0.187930000000     0.132270000000     0.030200000000     0.0363763  
H330     H      0.402340000000     0.298700000000     0.984240000000     0.0382599  
H331     H      0.289830000000     0.323550000000     0.949790000000     0.0360158  
H332     H      0.342970000000     0.273330000000     0.951920000000     0.0356548  
H333     H      0.207090000000     0.199750000000     0.047800000000     0.0396236  
H334     H      0.139140000000     0.184480000000     0.019630000000     0.0398136  
H335     H      0.312530000000     0.362700000000     0.029990000000     0.0397229  
H336     H      0.143320000000     0.145060000000     0.899840000000     0.0387946  
H337     H      0.773570000000     0.046360000000     0.763720000000     0.0398013  
H338     H      0.719970000000     0.000420000000     0.624330000000     0.0358396  
H339     H      0.631910000000     0.003130000000     0.715730000000     0.0415271  
H340     H      0.871080000000     0.936500000000     0.804420000000     0.0382025  
H341     H      0.665770000000     0.039750000000     0.597400000000     0.0364546  
H342     H      0.754770000000     0.978700000000     0.837890000000     0.0336768  
H343     H      0.845510000000     0.975470000000     0.749320000000     0.0335846  
H344     H      0.806680000000     0.985880000000     0.891500000000     0.0378557  
H345     H      0.578240000000     0.993420000000     0.663580000000     0.0290326  
H346     H      0.722230000000     0.059510000000     0.712700000000     0.0429395  
H347     H      0.666740000000     0.992450000000     0.572230000000     0.0357986  
H348     H      0.754620000000     0.919580000000     0.750000000000     0.0436107  
H349     H      0.688180000000     0.957550000000     0.632110000000     0.036898   
H350     H      0.898060000000     0.982820000000     0.802590000000     0.0374123  
H351     H      0.787170000000     0.021320000000     0.831310000000     0.0374177  
H352     H      0.839690000000     0.019470000000     0.779980000000     0.0372019  
H353     H      0.703380000000     0.932710000000     0.698970000000     0.0393087  
H354     H      0.637210000000     0.959400000000     0.685030000000     0.0394623  
H355     H      0.807670000000     0.938660000000     0.866110000000     0.0377798  
H356     H      0.634310000000     0.081380000000     0.659020000000     0.0373874  
H357     H      0.266770000000     0.040200000000     0.704840000000     0.0400432  
H358     H      0.132650000000     0.981160000000     0.755150000000     0.0332906  
H359     H      0.220830000000     0.991180000000     0.845850000000     0.0389026  
H360     H      0.313010000000     0.934390000000     0.605700000000     0.0381746  
H361     H      0.100150000000     0.018820000000     0.806900000000     0.0394856  
H362     H      0.346900000000     0.980070000000     0.721200000000     0.0343154  
H363     H      0.256090000000     0.968490000000     0.633420000000     0.0337867  
H364     H      0.397670000000     0.992390000000     0.667070000000     0.0396232  
H365     H      0.167680000000     0.980410000000     0.898350000000     0.0303801  
H366     H      0.214520000000     0.048410000000     0.755870000000     0.0435368  
H367     H      0.079980000000     0.969180000000     0.807620000000     0.0377117  
H368     H      0.264510000000     0.912560000000     0.723120000000     0.0439214  
H369     H      0.142710000000     0.939560000000     0.787990000000     0.0356325  
H370     H      0.306570000000     0.980550000000     0.579170000000     0.0376501  
H371     H      0.335330000000     0.021680000000     0.688840000000     0.0385833  
H372     H      0.283020000000     0.014970000000     0.638210000000     0.0375339  
H373     H      0.212250000000     0.920800000000     0.774200000000     0.039837   
H374     H      0.192570000000     0.945830000000     0.840450000000     0.0385657  
H375     H      0.377460000000     0.942710000000     0.667840000000     0.0384524  
H376     H      0.155410000000     0.066210000000     0.839650000000     0.0379788  
H377     H      0.184250000000     0.056420000000     0.224730000000     0.039292   
H378     H      0.251750000000     0.980930000000     0.342440000000     0.0338554  
H379     H      0.334840000000     0.044200000000     0.270100000000     0.039457   
H380     H      0.103310000000     0.945410000000     0.166240000000     0.0382257  
H381     H      0.297240000000     0.017690000000     0.386030000000     0.0393848  
H382     H      0.215520000000     0.001850000000     0.132660000000     0.0332702  
H383     H      0.127340000000     0.983750000000     0.221940000000     0.0339009  
H384     H      0.162040000000     0.005030000000     0.080070000000     0.0394513  
H385     H      0.391090000000     0.020830000000     0.316030000000     0.0368649  
H386     H      0.233820000000     0.066530000000     0.278200000000     0.0434693  
H387     H      0.304980000000     0.964740000000     0.391490000000     0.0358247  
H388     H      0.234100000000     0.940020000000     0.200570000000     0.0431066  
H389     H      0.292690000000     0.953080000000     0.320920000000     0.0370534  
H390     H      0.073200000000     0.989550000000     0.169100000000     0.0383674  
H391     H      0.178270000000     0.039660000000     0.142120000000     0.0357729  
H392     H      0.127950000000     0.029540000000     0.193460000000     0.0364792  
H393     H      0.284920000000     0.950980000000     0.252120000000     0.0402533  
H394     H      0.341320000000     0.991180000000     0.275010000000     0.0381291  
H395     H      0.167840000000     0.956820000000     0.102880000000     0.0395763  
H396     H      0.318440000000     0.088060000000     0.350600000000     0.0325005  
H397     H      0.766110000000     0.927180000000     0.199820000000     0.0397131  
H398     H      0.716050000000     0.979170000000     0.338420000000     0.0338148  
H399     H      0.625510000000     0.969620000000     0.249950000000     0.0395636  
H400     H      0.864180000000     0.035690000000     0.161020000000     0.040646   
H401     H      0.664450000000     0.939670000000     0.369350000000     0.0372408  
H402     H      0.749350000000     0.994750000000     0.123890000000     0.0339915  
H403     H      0.837490000000     0.996430000000     0.215100000000     0.0342659  
H404     H      0.802970000000     0.986560000000     0.071820000000     0.03642    
H405     H      0.573000000000     0.978590000000     0.303230000000     0.0301862  
H406     H      0.715610000000     0.915310000000     0.251960000000     0.0433564  
H407     H      0.663870000000     0.988400000000     0.391590000000     0.0371787  
H408     H      0.747200000000     0.054270000000     0.210520000000     0.0437121  
H409     H      0.682590000000     0.020550000000     0.329640000000     0.0371415  
H410     H      0.891510000000     0.989590000000     0.163770000000     0.0377211  
H411     H      0.780900000000     0.951660000000     0.131450000000     0.0365739  
H412     H      0.832140000000     0.952780000000     0.183800000000     0.0365671  
H413     H      0.696390000000     0.042400000000     0.262260000000     0.0396178  
H414     H      0.630110000000     0.014600000000     0.278980000000     0.0399302  
H415     H      0.803460000000     0.033940000000     0.096970000000     0.0379164  
H416     H      0.633600000000     0.893780000000     0.311930000000     0.0377163  
H417     H      0.928940000000     0.191680000000     0.760270000000     0.039663   
H418     H      0.975870000000     0.330040000000     0.711970000000     0.0336779  
H419     H      0.975480000000     0.243700000000     0.618980000000     0.0402617  
H420     H      0.037610000000     0.155980000000     0.860580000000     0.0405091  
H421     H      0.936900000000     0.359760000000     0.659210000000     0.0346543  
H422     H      0.996770000000     0.116910000000     0.746240000000     0.0340744  
H423     H      0.998780000000     0.209810000000     0.832540000000     0.0342019  
H424     H      0.988350000000     0.066090000000     0.800910000000     0.0366524  
H425     H      0.985210000000     0.298980000000     0.568320000000     0.0334129  
H426     H      0.916720000000     0.242880000000     0.708950000000     0.0430915  
H427     H      0.984170000000     0.384890000000     0.661660000000     0.0382295  
H428     H      0.056150000000     0.205410000000     0.743650000000     0.0437927  
H429     H      0.019150000000     0.324390000000     0.680220000000     0.0387436  
H430     H      0.991390000000     0.159740000000     0.887660000000     0.037673   
H431     H      0.953580000000     0.125220000000     0.777530000000     0.0366376  
H432     H      0.954850000000     0.178840000000     0.827740000000     0.0366475  
H433     H      0.043940000000     0.256570000000     0.692340000000     0.0403947  
H434     H      0.018620000000     0.274730000000     0.626630000000     0.0425024  
H435     H      0.035750000000     0.091210000000     0.801260000000     0.0374703  
H436     H      0.895990000000     0.299750000000     0.622800000000     0.0366193  
H437     H      0.044440000000     0.690030000000     0.718180000000     0.0395682  
H438     H      0.993620000000     0.830400000000     0.758630000000     0.0330671  
H439     H      0.982940000000     0.744450000000     0.851270000000     0.0394857  
H440     H      0.947710000000     0.657770000000     0.605700000000     0.04271    
H441     H      0.028530000000     0.860630000000     0.813320000000     0.0365555  
H442     H      0.974290000000     0.616850000000     0.724390000000     0.033798   
H443     H      0.984940000000     0.709450000000     0.638510000000     0.034238   
H444     H      0.988380000000     0.565790000000     0.670490000000     0.0375069  
H445     H      0.972740000000     0.800140000000     0.901280000000     0.0335392  
H446     H      0.051570000000     0.741950000000     0.769670000000     0.0432839  
H447     H      0.981350000000     0.885560000000     0.808690000000     0.0385717  
H448     H      0.916460000000     0.706510000000     0.719320000000     0.0443344  
H449     H      0.947730000000     0.825910000000     0.786620000000     0.036616   
H450     H      0.997080000000     0.658720000000     0.584650000000     0.038636   
H451     H      0.020810000000     0.624030000000     0.698020000000     0.0367175  
H452     H      0.026740000000     0.676760000000     0.648290000000     0.036912   
H453     H      0.923620000000     0.758350000000     0.771000000000     0.0404635  
H454     H      0.942290000000     0.777740000000     0.840140000000     0.0407307  
H455     H      0.941140000000     0.590770000000     0.666330000000     0.0388626  
H456     H      0.065630000000     0.799710000000     0.853090000000     0.0372857  
H457     H      0.042790000000     0.776550000000     0.212180000000     0.0402991  
H458     H      0.991480000000     0.721990000000     0.351100000000     0.0337347  
H459     H      0.001060000000     0.636080000000     0.258200000000     0.041469   
H460     H      0.935390000000     0.874450000000     0.168710000000     0.0354674  
H461     H      0.031890000000     0.669360000000     0.378810000000     0.0417543  
H462     H      0.974400000000     0.756440000000     0.137390000000     0.0338836  
H463     H      0.973760000000     0.848880000000     0.224190000000     0.0336413  
H464     H      0.982600000000     0.807000000000     0.082770000000     0.0390965  
H465     H      0.992570000000     0.580980000000     0.308900000000     0.0288908  
H466     H      0.055000000000     0.725580000000     0.263700000000     0.0434132  
H467     H      0.983490000000     0.667150000000     0.401790000000     0.0385414  
H468     H      0.915690000000     0.757430000000     0.223410000000     0.0433292  
H469     H      0.950350000000     0.688580000000     0.341040000000     0.0356884  
H470     H      0.982490000000     0.900110000000     0.169910000000     0.0383794  
H471     H      0.017870000000     0.787860000000     0.143230000000     0.0387649  
H472     H      0.017550000000     0.841350000000     0.193550000000     0.0383269  
H473     H      0.927930000000     0.706160000000     0.274630000000     0.0392781  
H474     H      0.956240000000     0.638970000000     0.287700000000     0.0395186  
H475     H      0.935530000000     0.809800000000     0.108420000000     0.0358184  
H476     H      0.077650000000     0.640570000000     0.321170000000     0.0385135  
H477     H      0.924900000000     0.275770000000     0.255340000000     0.0404021  
H478     H      0.982160000000     0.222590000000     0.118610000000     0.033807   
H479     H      0.974680000000     0.137130000000     0.212070000000     0.0396011  
H480     H      0.028960000000     0.375540000000     0.303580000000     0.0372081  
H481     H      0.944370000000     0.168830000000     0.089770000000     0.0379504  
H482     H      0.988300000000     0.256650000000     0.332860000000     0.0336477  
H483     H      0.993530000000     0.349510000000     0.246730000000     0.0329518  
H484     H      0.976390000000     0.307320000000     0.387080000000     0.04126    
H485     H      0.984780000000     0.081920000000     0.161880000000     0.0302342  
H486     H      0.916360000000     0.224640000000     0.203270000000     0.0434379  
H487     H      0.993640000000     0.167300000000     0.068680000000     0.037358   
H488     H      0.052880000000     0.260300000000     0.249530000000     0.0433501  
H489     H      0.024280000000     0.190780000000     0.129690000000     0.0369288  
H490     H      0.981470000000     0.400320000000     0.300980000000     0.0390236  
H491     H      0.945360000000     0.288280000000     0.324710000000     0.0379369  
H492     H      0.948350000000     0.341620000000     0.275170000000     0.0366924  
H493     H      0.044310000000     0.209130000000     0.197460000000     0.0394888  
H494     H      0.019410000000     0.141240000000     0.182560000000     0.0400011  
H495     H      0.025330000000     0.309010000000     0.365120000000     0.037534   
H496     H      0.898420000000     0.139690000000     0.149700000000     0.037995   
N1       N      0.466690000000     0.101520000000     0.342560000000    -0.170558   
N2       N      0.464140000000     0.159720000000     0.281750000000    -0.111111   
N3       N      0.494650000000     0.288440000000     0.173740000000    -0.113783   
N4       N      0.492960000000     0.348990000000     0.114630000000    -0.165759   
N5       N      0.489680000000     0.846800000000     0.359570000000    -0.172032   
N6       N      0.495080000000     0.785550000000     0.302030000000    -0.111665   
N7       N      0.470240000000     0.665930000000     0.183590000000    -0.113982   
N8       N      0.476420000000     0.609150000000     0.121750000000    -0.166402   
N9       N      0.486850000000     0.618020000000     0.858780000000    -0.170788   
N10      N      0.495200000000     0.679760000000     0.801500000000    -0.111644   
N11      N      0.476030000000     0.801420000000     0.683110000000    -0.113507   
N12      N      0.485140000000     0.859090000000     0.621850000000    -0.166103   
N13      N      0.476680000000     0.121040000000     0.609060000000    -0.17076    
N14      N      0.471990000000     0.182250000000     0.667470000000    -0.111671   
N15      N      0.501770000000     0.299190000000     0.788450000000    -0.113778   
N16      N      0.496210000000     0.356280000000     0.850810000000    -0.166291   
N17      N      0.849470000000     0.358790000000     0.472830000000    -0.171107   
N18      N      0.787410000000     0.301800000000     0.464530000000    -0.111674   
N19      N      0.666710000000     0.183240000000     0.487380000000    -0.113618   
N20      N      0.609500000000     0.121400000000     0.480600000000    -0.166292   
N21      N      0.860020000000     0.619660000000     0.493220000000    -0.170867   
N22      N      0.802350000000     0.681160000000     0.499410000000    -0.111664   
N23      N      0.683580000000     0.801450000000     0.476410000000    -0.113619   
N24      N      0.622070000000     0.858970000000     0.483460000000    -0.16584    
N25      N      0.111060000000     0.346770000000     0.490110000000    -0.17162    
N26      N      0.167880000000     0.284320000000     0.495090000000    -0.111736   
N27      N      0.284780000000     0.163930000000     0.464490000000    -0.114006   
N28      N      0.347180000000     0.107260000000     0.471190000000    -0.166513   
N29      N      0.122770000000     0.608740000000     0.486710000000    -0.171274   
N30      N      0.185030000000     0.665600000000     0.482270000000    -0.11161    
N31      N      0.303220000000     0.785570000000     0.508940000000    -0.113784   
N32      N      0.360370000000     0.847280000000     0.500680000000    -0.166845   
N33      N      0.615710000000     0.495430000000     0.117350000000    -0.171988   
N34      N      0.675340000000     0.503890000000     0.176690000000    -0.111792   
N35      N      0.796980000000     0.479030000000     0.293590000000    -0.113786   
N36      N      0.856430000000     0.485460000000     0.353110000000    -0.167048   
N37      N      0.118530000000     0.489120000000     0.355650000000    -0.171391   
N38      N      0.178280000000     0.492330000000     0.295940000000    -0.111667   
N39      N      0.295760000000     0.459920000000     0.176530000000    -0.113908   
N40      N      0.355090000000     0.465780000000     0.116560000000    -0.166863   
N41      N      0.354520000000     0.488960000000     0.854900000000    -0.17177    
N42      N      0.294350000000     0.493300000000     0.795470000000    -0.111786   
N43      N      0.175220000000     0.461130000000     0.677420000000    -0.113941   
N44      N      0.115700000000     0.466530000000     0.617520000000    -0.166661   
N45      N      0.855630000000     0.494320000000     0.615500000000    -0.172962   
N46      N      0.798780000000     0.507620000000     0.676740000000    -0.110668   
N47      N      0.672730000000     0.509480000000     0.794090000000    -0.112513   
N48      N      0.615440000000     0.497800000000     0.855230000000    -0.167312   
N49      N      0.850690000000     0.856370000000     0.979270000000    -0.171539   
N50      N      0.789240000000     0.798290000000     0.973870000000    -0.111178   
N51      N      0.668850000000     0.680990000000     0.003920000000    -0.111037   
N52      N      0.610900000000     0.619590000000     0.998320000000    -0.168526   
N53      N      0.622770000000     0.358310000000     0.985660000000    -0.171544   
N54      N      0.684430000000     0.300890000000     0.990190000000    -0.111907   
N55      N      0.801900000000     0.180270000000     0.963940000000    -0.113417   
N56      N      0.858990000000     0.118530000000     0.971580000000    -0.167083   
N57      N      0.348920000000     0.608440000000     0.993180000000    -0.17162    
N58      N      0.287610000000     0.665740000000     0.001600000000    -0.109625   
N59      N      0.169140000000     0.786930000000     0.984000000000    -0.114331   
N60      N      0.112490000000     0.848760000000     0.991430000000    -0.165864   
N61      N      0.120900000000     0.110210000000     0.981200000000    -0.171268   
N62      N      0.183020000000     0.166960000000     0.976550000000    -0.111173   
N63      N      0.302620000000     0.286030000000     0.000100000000    -0.111743   
N64      N      0.360320000000     0.347030000000     0.991490000000    -0.166723   
N65      N      0.617850000000     0.001590000000     0.613480000000    -0.171214   
N66      N      0.678710000000     0.006360000000     0.672500000000    -0.108932   
N67      N      0.797400000000     0.972680000000     0.790930000000    -0.113268   
N68      N      0.856520000000     0.976170000000     0.851560000000    -0.166439   
N69      N      0.118600000000     0.984580000000     0.856970000000    -0.171583   
N70      N      0.178580000000     0.991590000000     0.798020000000    -0.111907   
N71      N      0.299540000000     0.969320000000     0.679980000000    -0.113144   
N72      N      0.357280000000     0.977610000000     0.619000000000    -0.16709    
N73      N      0.351080000000     0.996500000000     0.359920000000    -0.172389   
N74      N      0.289380000000     0.014860000000     0.303750000000    -0.111715   
N75      N      0.174600000000     0.987960000000     0.179450000000    -0.113828   
N76      N      0.114610000000     0.986740000000     0.119700000000    -0.165215   
N77      N      0.614410000000     0.974610000000     0.352360000000    -0.172097   
N78      N      0.673500000000     0.969520000000     0.292000000000    -0.111224   
N79      N      0.790780000000     0.000230000000     0.171960000000    -0.111305   
N80      N      0.851490000000     0.996150000000     0.113370000000    -0.168268   
N81      N      0.975200000000     0.346430000000     0.610520000000    -0.1715     
N82      N      0.970710000000     0.284360000000     0.667900000000    -0.11124    
N83      N      0.002230000000     0.165830000000     0.786610000000    -0.111297   
N84      N      0.997550000000     0.108570000000     0.848690000000    -0.168177   
N85      N      0.987920000000     0.847020000000     0.860020000000    -0.171092   
N86      N      0.994060000000     0.785020000000     0.803300000000    -0.111932   
N87      N      0.974330000000     0.665580000000     0.683440000000    -0.1131     
N88      N      0.983110000000     0.608210000000     0.622250000000    -0.166587   
N89      N      0.997140000000     0.619870000000     0.360010000000    -0.172028   
N90      N      0.001160000000     0.681910000000     0.302570000000    -0.109296   
N91      N      0.969590000000     0.800110000000     0.183500000000    -0.113464   
N92      N      0.974520000000     0.857800000000     0.121790000000    -0.166745   
N93      N      0.979350000000     0.120230000000     0.110440000000    -0.171904   
N94      N      0.973010000000     0.182410000000     0.167130000000    -0.111236   
N95      N      0.996050000000     0.300750000000     0.287550000000    -0.114155   
N96      N      0.988560000000     0.357950000000     0.349060000000    -0.166343   
O1       O      0.984960000000     0.099610000000     0.045430000000    -0.378474   
O2       O      0.979290000000     0.873020000000     0.055210000000    -0.378403   
O3       O      0.917810000000     0.991360000000     0.097230000000    -0.374951   
O4       O      0.048490000000     0.986060000000     0.101010000000    -0.374392   
O5       O      0.097570000000     0.984580000000     0.053410000000    -0.376481   
O6       O      0.870550000000     0.990810000000     0.047810000000    -0.378488   
O7       O      0.979870000000     0.923040000000     0.101770000000    -0.377553   
O8       O      0.982320000000     0.053490000000     0.095830000000    -0.375029   
O9       O      0.024020000000     0.943440000000     0.028940000000    -0.505694   
O10      O      0.945560000000     0.026650000000     0.023210000000    -0.503121   
O11      O      0.942600000000     0.946060000000     0.026790000000    -0.648886   
O12      O      0.026210000000     0.024730000000     0.025530000000    -0.648274   
O13      O      0.983990000000     0.867630000000     0.925210000000    -0.374142   
O14      O      0.992710000000     0.093760000000     0.915400000000    -0.375408   
O15      O      0.870060000000     0.921910000000     0.982800000000    -0.37672    
O16      O      0.096970000000     0.915360000000     0.990150000000    -0.379909   
O17      O      0.100850000000     0.045100000000     0.985710000000    -0.375935   
O18      O      0.874150000000     0.052160000000     0.978370000000    -0.377435   
O19      O      0.922380000000     0.978690000000     0.870400000000    -0.377542   
O20      O      0.052520000000     0.979960000000     0.873540000000    -0.377605   
O21      O      0.873210000000     0.982010000000     0.917740000000    -0.375481   
O22      O      0.099830000000     0.982020000000     0.922850000000    -0.374403   
O23      O      0.917000000000     0.872350000000     0.985110000000    -0.374817   
O24      O      0.924120000000     0.098720000000     0.977410000000    -0.378976   
O25      O      0.054170000000     0.094760000000     0.981380000000    -0.37537    
O26      O      0.047090000000     0.868700000000     0.992030000000    -0.376222   
O27      O      0.987090000000     0.913740000000     0.874860000000    -0.379574   
O28      O      0.991070000000     0.043600000000     0.869070000000    -0.376748   
O29      O      0.027750000000     0.020770000000     0.944400000000    -0.504714   
O30      O      0.944590000000     0.942740000000     0.945850000000    -0.507597   
O31      O      0.946780000000     0.023720000000     0.941950000000    -0.650693   
O32      O      0.025650000000     0.940410000000     0.947560000000    -0.649389   
O33      O      0.984220000000     0.373000000000     0.415650000000    -0.37847    
O34      O      0.992200000000     0.599580000000     0.425250000000    -0.376809   
O35      O      0.922410000000     0.487730000000     0.371180000000    -0.378845   
O36      O      0.052460000000     0.487220000000     0.372860000000    -0.376419   
O37      O      0.100310000000     0.483580000000     0.421540000000    -0.376092   
O38      O      0.873750000000     0.488170000000     0.419170000000    -0.37917    
O39      O      0.991930000000     0.553290000000     0.374970000000    -0.376483   
O40      O      0.986900000000     0.423200000000     0.369350000000    -0.37797    
O41      O      0.028560000000     0.523660000000     0.447380000000    -0.507081   
O42      O      0.944600000000     0.446680000000     0.442930000000    -0.509742   
O43      O      0.947560000000     0.527710000000     0.445790000000    -0.651107   
O44      O      0.025640000000     0.442960000000     0.443650000000    -0.649792   
O45      O      0.988050000000     0.593340000000     0.555620000000    -0.377423   
O46      O      0.979230000000     0.367060000000     0.545350000000    -0.37572    
O47      O      0.875310000000     0.553280000000     0.487230000000    -0.376623   
O48      O      0.102330000000     0.543560000000     0.488810000000    -0.377675   
O49      O      0.096630000000     0.413550000000     0.486360000000    -0.377622   
O50      O      0.869750000000     0.423720000000     0.480830000000    -0.378932   
O51      O      0.920100000000     0.481020000000     0.598300000000    -0.378796   
O52      O      0.049960000000     0.473320000000     0.599570000000    -0.377814   
O53      O      0.873370000000     0.492750000000     0.549670000000    -0.37635    
O54      O      0.098700000000     0.474220000000     0.551680000000    -0.377867   
O55      O      0.925500000000     0.599460000000     0.490650000000    -0.374199   
O56      O      0.916090000000     0.373640000000     0.477340000000    -0.374868   
O57      O      0.046120000000     0.367580000000     0.485210000000    -0.374757   
O58      O      0.056000000000     0.593770000000     0.488460000000    -0.375319   
O59      O      0.984960000000     0.543010000000     0.601790000000    -0.377816   
O60      O      0.981040000000     0.413000000000     0.595870000000    -0.377611   
O61      O      0.024470000000     0.439440000000     0.524520000000    -0.508662   
O62      O      0.947460000000     0.523350000000     0.527070000000    -0.508516   
O63      O      0.942990000000     0.442840000000     0.523940000000    -0.651284   
O64      O      0.027960000000     0.520600000000     0.528470000000    -0.647353   
O65      O      0.597570000000     0.983240000000     0.418150000000    -0.378768   
O66      O      0.369800000000     0.979390000000     0.423090000000    -0.381021   
O67      O      0.483960000000     0.913130000000     0.374460000000    -0.3849     
O68      O      0.482540000000     0.040240000000     0.366230000000    -0.380305   
O69      O      0.469740000000     0.090710000000     0.410620000000    -0.36585    
O70      O      0.489460000000     0.867410000000     0.424940000000    -0.377137   
O71      O      0.417340000000     0.987710000000     0.374660000000    -0.370889   
O72      O      0.548580000000     0.977130000000     0.370920000000    -0.374857   
O73      O      0.442490000000     0.019160000000     0.443600000000    -0.509788   
O74      O      0.526720000000     0.943400000000     0.445950000000    -0.511389   
O75      O      0.444990000000     0.938770000000     0.446600000000    -0.649666   
O76      O      0.523240000000     0.024430000000     0.440800000000    -0.645217   
O77      O      0.373290000000     0.979850000000     0.552530000000    -0.380592   
O78      O      0.599380000000     0.994150000000     0.547850000000    -0.378472   
O79      O      0.425410000000     0.867510000000     0.493970000000    -0.376398   
O80      O      0.413900000000     0.093530000000     0.476350000000    -0.375457   
O81      O      0.544190000000     0.100840000000     0.477480000000    -0.381025   
O82      O      0.555410000000     0.873880000000     0.487270000000    -0.376149   
O83      O      0.487440000000     0.924490000000     0.601320000000    -0.373685   
O84      O      0.482510000000     0.054800000000     0.593790000000    -0.37513    
O85      O      0.488880000000     0.874030000000     0.555230000000    -0.377083   
O86      O      0.478900000000     0.100870000000     0.543350000000    -0.374867   
O87      O      0.374960000000     0.913490000000     0.492230000000    -0.379129   
O88      O      0.601500000000     0.924280000000     0.484690000000    -0.374587   
O89      O      0.594550000000     0.054700000000     0.480910000000    -0.376521   
O90      O      0.368270000000     0.042920000000     0.481110000000    -0.374429   
O91      O      0.422480000000     0.984580000000     0.599680000000    -0.376793   
O92      O      0.551780000000     0.994680000000     0.596860000000    -0.378665   
O93      O      0.523460000000     0.028490000000     0.521610000000    -0.50588    
O94      O      0.447550000000     0.943720000000     0.527900000000    -0.511369   
O95      O      0.528280000000     0.947130000000     0.526660000000    -0.649364   
O96      O      0.443140000000     0.024890000000     0.523720000000    -0.644059   
O97      O      0.425640000000     0.367000000000     0.986730000000    -0.377487   
O98      O      0.415480000000     0.593420000000     0.989250000000    -0.377928   
O99      O      0.372350000000     0.473590000000     0.050750000000    -0.375299   
O100     O      0.372290000000     0.482840000000     0.920760000000    -0.380058   
O101     O      0.420600000000     0.486210000000     0.872540000000    -0.377701   
O102     O      0.420660000000     0.473850000000     0.099060000000    -0.377708   
O103     O      0.369210000000     0.543190000000     0.989130000000    -0.37844    
O104     O      0.375460000000     0.413370000000     0.986400000000    -0.378918   
O105     O      0.443440000000     0.523120000000     0.946640000000    -0.508187   
O106     O      0.447170000000     0.439940000000     0.024980000000    -0.50777    
O107     O      0.443130000000     0.520680000000     0.027890000000    -0.651411   
O108     O      0.446710000000     0.441580000000     0.944190000000    -0.649538   
O109     O      0.545590000000     0.599540000000     0.992820000000    -0.376008   
O110     O      0.556140000000     0.373290000000     0.983610000000    -0.376773   
O111     O      0.481490000000     0.544190000000     0.101610000000    -0.378939   
O112     O      0.485050000000     0.551420000000     0.874580000000    -0.373293   
O113     O      0.489760000000     0.421310000000     0.870880000000    -0.377242   
O114     O      0.487970000000     0.414990000000     0.097930000000    -0.378352   
O115     O      0.598470000000     0.490000000000     0.051390000000    -0.377321   
O116     O      0.598400000000     0.495020000000     0.921250000000    -0.381044   
O117     O      0.550230000000     0.486510000000     0.099650000000    -0.377284   
O118     O      0.550640000000     0.486850000000     0.872900000000    -0.375265   
O119     O      0.479690000000     0.594120000000     0.055000000000    -0.374968   
O120     O      0.492260000000     0.367890000000     0.048590000000    -0.371987   
O121     O      0.492350000000     0.371520000000     0.917630000000    -0.377059   
O122     O      0.482430000000     0.598340000000     0.924260000000    -0.37848    
O123     O      0.595800000000     0.553280000000     0.991680000000    -0.374896   
O124     O      0.602320000000     0.423640000000     0.984460000000    -0.380465   
O125     O      0.528030000000     0.445620000000     0.944630000000    -0.507555   
O126     O      0.524000000000     0.524110000000     0.027790000000    -0.506593   
O127     O      0.528210000000     0.443300000000     0.025720000000    -0.650209   
O128     O      0.524160000000     0.526660000000     0.946930000000    -0.653123   
S1       S      0.391950000000     0.115530000000     0.317050000000    -0.0376108  
S2       S      0.552190000000     0.800410000000     0.377650000000    -0.0436853  
S3       S      0.546930000000     0.598180000000     0.809690000000    -0.0451477  
S4       S      0.419980000000     0.100980000000     0.661980000000    -0.048357   
S5       S      0.868780000000     0.309620000000     0.412630000000    -0.0417182  
S6       S      0.881040000000     0.669310000000     0.552280000000    -0.042982   
S7       S      0.087850000000     0.296960000000     0.548390000000    -0.0418719  
S8       S      0.108840000000     0.656520000000     0.424120000000    -0.0421529  
S9       S      0.591730000000     0.552260000000     0.168400000000    -0.0429087  
S10      S      0.169440000000     0.547870000000     0.374140000000    -0.0441897  
S11      S      0.373390000000     0.548590000000     0.804910000000    -0.042397   
S12      S      0.844220000000     0.573260000000     0.618540000000    -0.0415323  
S13      S      0.871070000000     0.804180000000     0.922050000000    -0.0426191  
S14      S      0.604740000000     0.306120000000     0.043600000000    -0.0482283  
S15      S      0.368980000000     0.659310000000     0.051600000000    -0.0477131  
S16      S      0.107940000000     0.156370000000     0.917230000000    -0.0430224  
S17      S      0.599030000000     0.061030000000     0.663710000000    -0.0443186  
S18      S      0.164910000000     0.047190000000     0.874750000000    -0.0409521  
S19      S      0.357090000000     0.074770000000     0.347270000000    -0.0255627  
S20      S      0.597580000000     0.912190000000     0.305260000000    -0.0444585  
S21      S      0.917190000000     0.296150000000     0.587850000000    -0.0489915  
S22      S      0.041650000000     0.793740000000     0.885850000000    -0.0467302  
S23      S      0.059000000000     0.605390000000     0.311420000000    -0.0444181  
S24      S      0.917750000000     0.104770000000     0.159040000000    -0.0431833  
Zr1      Zr     0.983780000000     0.986790000000     0.066320000000     1.4167     
Zr2      Zr     0.982980000000     0.903270000000     0.988880000000     1.42174    
Zr3      Zr     0.987940000000     0.063960000000     0.981920000000     1.42426    
Zr4      Zr     0.904770000000     0.986080000000     0.983470000000     1.42083    
Zr5      Zr     0.065930000000     0.981330000000     0.987630000000     1.4219     
Zr6      Zr     0.986880000000     0.980160000000     0.904830000000     1.42465    
Zr7      Zr     0.987140000000     0.486870000000     0.404880000000     1.42614    
Zr8      Zr     0.989390000000     0.563910000000     0.488860000000     1.42442    
Zr9      Zr     0.982630000000     0.403110000000     0.482040000000     1.42801    
Zr10     Zr     0.905720000000     0.487140000000     0.484560000000     1.42862    
Zr11     Zr     0.066700000000     0.480080000000     0.486430000000     1.42696    
Zr12     Zr     0.985340000000     0.479460000000     0.566070000000     1.42559    
Zr13     Zr     0.483770000000     0.979240000000     0.404470000000     1.43053    
Zr14     Zr     0.404570000000     0.979800000000     0.486700000000     1.43077    
Zr15     Zr     0.565450000000     0.987840000000     0.483400000000     1.42128    
Zr16     Zr     0.488700000000     0.903370000000     0.488560000000     1.42548    
Zr17     Zr     0.480670000000     0.064750000000     0.479420000000     1.41714    
Zr18     Zr     0.486440000000     0.988100000000     0.565020000000     1.42486    
Zr19     Zr     0.405160000000     0.479740000000     0.985820000000     1.42446    
Zr20     Zr     0.481990000000     0.563750000000     0.988600000000     1.42618    
Zr21     Zr     0.489420000000     0.402460000000     0.983940000000     1.41973    
Zr22     Zr     0.485510000000     0.480670000000     0.066590000000     1.4334     
Zr23     Zr     0.485600000000     0.485260000000     0.905620000000     1.42544    
Zr24     Zr     0.566110000000     0.487010000000     0.986240000000     1.42686    


