data_structure

_audit_creation_method RASPA-1.0
_audit_creation_date 2023-5-25
_audit_author_name 'Poobodin Mano'

_cell_length_a    33.4257
_cell_length_b    33.3921
_cell_length_c    33.445
_cell_angle_alpha 90
_cell_angle_beta  90
_cell_angle_gamma 90
_cell_volume      37329.8

_symmetry_cell_setting          triclinic
_symmetry_space_group_name_Hall 'P 1'
_symmetry_space_group_name_H-M  'P 1'
_symmetry_Int_Tables_number     1

_symmetry_equiv_pos_as_xyz 'x,y,z'

loop_
_atom_site_label
_atom_site_type_symbol
_atom_site_fract_x
_atom_site_fract_y
_atom_site_fract_z
_atom_site_charge
C1       C      0.974040000000     0.083620000000     0.090360000000     0.396851   
C2       C      0.989320000000     0.879550000000     0.084010000000     0.398538   
C3       C      0.878700000000     0.976300000000     0.082960000000     0.390167   
C4       C      0.082670000000     0.982590000000     0.091770000000     0.398022   
C5       C      0.987270000000     0.886420000000     0.880300000000     0.394584   
C6       C      0.991740000000     0.090450000000     0.886970000000     0.397945   
C7       C      0.885810000000     0.880420000000     0.974960000000     0.391162   
C8       C      0.089670000000     0.885090000000     0.984210000000     0.396653   
C9       C      0.084730000000     0.089470000000     0.994880000000     0.395122   
C10      C      0.880480000000     0.084690000000     0.987640000000     0.391367   
C11      C      0.887370000000     0.983300000000     0.878910000000     0.389785   
C12      C      0.091370000000     0.989980000000     0.887780000000     0.397054   
C13      C      0.984210000000     0.380710000000     0.385310000000     0.3902     
C14      C      0.982570000000     0.585170000000     0.381440000000     0.393575   
C15      C      0.880330000000     0.484660000000     0.384930000000     0.395261   
C16      C      0.083870000000     0.489630000000     0.381790000000     0.40172    
C17      C      0.987560000000     0.589460000000     0.585460000000     0.397965   
C18      C      0.988280000000     0.385140000000     0.589350000000     0.392302   
C19      C      0.881760000000     0.586490000000     0.490380000000     0.398107   
C20      C      0.085650000000     0.588970000000     0.479520000000     0.397168   
C21      C      0.088120000000     0.384720000000     0.482870000000     0.391448   
C22      C      0.883690000000     0.382000000000     0.490090000000     0.391703   
C23      C      0.883780000000     0.484050000000     0.588750000000     0.396464   
C24      C      0.088250000000     0.483990000000     0.586020000000     0.39699    
C25      C      0.580950000000     0.983310000000     0.376960000000     0.394982   
C26      C      0.377310000000     0.986950000000     0.389270000000     0.392061   
C27      C      0.476560000000     0.878500000000     0.387860000000     0.388833   
C28      C      0.476140000000     0.083020000000     0.379270000000     0.397534   
C29      C      0.389210000000     0.992080000000     0.593080000000     0.390581   
C30      C      0.593500000000     0.992430000000     0.580590000000     0.395347   
C31      C      0.382340000000     0.884170000000     0.498160000000     0.389937   
C32      C      0.384110000000     0.088510000000     0.489160000000     0.39756    
C33      C      0.587770000000     0.086570000000     0.474860000000     0.398374   
C34      C      0.585910000000     0.882160000000     0.478640000000     0.392026   
C35      C      0.492810000000     0.887510000000     0.591420000000     0.390023   
C36      C      0.493590000000     0.091910000000     0.582710000000     0.391533   
C37      C      0.379970000000     0.386200000000     0.978140000000     0.39025    
C38      C      0.584530000000     0.380560000000     0.975460000000     0.395459   
C39      C      0.478460000000     0.389420000000     0.877050000000     0.39643    
C40      C      0.486800000000     0.376540000000     0.080790000000     0.390958   
C41      C      0.590410000000     0.584340000000     0.991100000000     0.396746   
C42      C      0.386220000000     0.589860000000     0.996180000000     0.390918   
C43      C      0.586920000000     0.493310000000     0.883110000000     0.393603   
C44      C      0.587620000000     0.472280000000     0.086190000000     0.392353   
C45      C      0.384300000000     0.486190000000     0.087650000000     0.394499   
C46      C      0.382680000000     0.495560000000     0.883700000000     0.390859   
C47      C      0.485030000000     0.593540000000     0.889420000000     0.395274   
C48      C      0.490380000000     0.580680000000     0.093530000000     0.394315   
C49      C      0.479110000000     0.127270000000     0.277000000000    -0.031741   
C50      C      0.482380000000     0.323620000000     0.178860000000    -0.0300193  
C51      C      0.493680000000     0.304090000000     0.094620000000    -0.00769434 
C52      C      0.498640000000     0.355580000000     0.150540000000    -0.00733193 
C53      C      0.447650000000     0.243720000000     0.206740000000    -0.056249   
C54      C      0.512620000000     0.205480000000     0.243150000000    -0.0564015  
C55      C      0.486900000000     0.253310000000     0.194780000000     0.0609531  
C56      C      0.477920000000     0.274450000000     0.125850000000    -0.0300789  
C57      C      0.473380000000     0.196170000000     0.255370000000     0.0615132  
C58      C      0.481710000000     0.180930000000     0.325680000000    -0.0544521  
C59      C      0.441090000000     0.215360000000     0.236780000000    -0.0535731  
C60      C      0.466320000000     0.153740000000     0.359390000000     0.0930064  
C61      C      0.463310000000     0.097420000000     0.307880000000    -0.00235295 
C62      C      0.519180000000     0.233830000000     0.213110000000    -0.0537883  
C63      C      0.384570000000     0.169360000000     0.374810000000     0.0365079  
C64      C      0.479790000000     0.625450000000     0.195400000000    -0.0313016  
C65      C      0.481960000000     0.824710000000     0.290270000000    -0.0299565  
C66      C      0.465750000000     0.806560000000     0.373980000000    -0.0076983  
C67      C      0.465950000000     0.857740000000     0.317670000000    -0.00756703 
C68      C      0.514590000000     0.742230000000     0.265790000000    -0.0563247  
C69      C      0.450050000000     0.706240000000     0.226420000000    -0.0565041  
C70      C      0.475250000000     0.754290000000     0.274910000000     0.0608237  
C71      C      0.481680000000     0.775950000000     0.343870000000    -0.0298771  
C72      C      0.489380000000     0.694150000000     0.217370000000     0.0614135  
C73      C      0.486960000000     0.678680000000     0.146740000000    -0.0538515  
C74      C      0.521440000000     0.712360000000     0.237310000000    -0.0534546  
C75      C      0.504190000000     0.650190000000     0.115150000000     0.0919978  
C76      C      0.495970000000     0.594010000000     0.166150000000    -0.0031009  
C77      C      0.443180000000     0.735990000000     0.255050000000    -0.0538942  
C78      C      0.588410000000     0.658150000000     0.112560000000     0.0385058  
C79      C      0.489910000000     0.646720000000     0.791410000000    -0.0312037  
C80      C      0.489780000000     0.843160000000     0.693710000000    -0.0299229  
C81      C      0.502630000000     0.816990000000     0.611500000000    -0.00748136 
C82      C      0.505140000000     0.873220000000     0.662840000000    -0.00740889 
C83      C      0.529060000000     0.755630000000     0.733530000000    -0.0542389  
C84      C      0.451330000000     0.735880000000     0.757350000000    -0.0535392  
C85      C      0.496410000000     0.774300000000     0.715050000000     0.0610345  
C86      C      0.487460000000     0.789640000000     0.644890000000    -0.0299512  
C87      C      0.483970000000     0.716900000000     0.775530000000     0.061472   
C88      C      0.493280000000     0.695930000000     0.844430000000    -0.0538317  
C89      C      0.523040000000     0.727140000000     0.763540000000    -0.0566648  
C90      C      0.477900000000     0.666060000000     0.875850000000     0.0916994  
C91      C      0.474090000000     0.614420000000     0.819550000000    -0.00287759 
C92      C      0.457360000000     0.764380000000     0.727370000000    -0.0564501  
C93      C      0.396600000000     0.681600000000     0.893560000000     0.0327976  
C94      C      0.482720000000     0.291490000000     0.823960000000    -0.0315675  
C95      C      0.487880000000     0.194470000000     0.626980000000    -0.0298483  
C96      C      0.501850000000     0.112330000000     0.653240000000    -0.00814538 
C97      C      0.504110000000     0.163800000000     0.597070000000    -0.00751782 
C98      C      0.524840000000     0.234610000000     0.715500000000    -0.0539431  
C99      C      0.446380000000     0.257100000000     0.733840000000    -0.0530939  
C100     C      0.492880000000     0.215780000000     0.695980000000     0.0613693  
C101     C      0.485440000000     0.145430000000     0.680220000000    -0.0295609  
C102     C      0.478320000000     0.275630000000     0.753670000000     0.0613228  
C103     C      0.485960000000     0.344770000000     0.774910000000    -0.0543777  
C104     C      0.517770000000     0.264300000000     0.744110000000    -0.0562591  
C105     C      0.469790000000     0.375920000000     0.804690000000     0.0927269  
C106     C      0.466160000000     0.319550000000     0.856030000000    -0.00266069 
C107     C      0.453450000000     0.227430000000     0.705210000000    -0.0563455  
C108     C      0.388040000000     0.391330000000     0.789140000000     0.0362584  
C109     C      0.687680000000     0.135040000000     0.483440000000    -0.0310885  
C110     C      0.784200000000     0.332340000000     0.483080000000    -0.0296684  
C111     C      0.866880000000     0.310740000000     0.500650000000    -0.00732269 
C112     C      0.812610000000     0.364190000000     0.499460000000    -0.00742392 
C113     C      0.745650000000     0.244780000000     0.521730000000    -0.0539562  
C114     C      0.727460000000     0.222200000000     0.443280000000    -0.0534843  
C115     C      0.766010000000     0.262730000000     0.489830000000     0.0613752  
C116     C      0.835800000000     0.281390000000     0.484350000000    -0.0297518  
C117     C      0.707170000000     0.204200000000     0.475190000000     0.0618242  
C118     C      0.637020000000     0.186740000000     0.479170000000    -0.0540602  
C119     C      0.716410000000     0.215770000000     0.514620000000    -0.0565216  
C120     C      0.605630000000     0.157440000000     0.462840000000     0.092326   
C121     C      0.659360000000     0.103140000000     0.467030000000    -0.00316562 
C122     C      0.756640000000     0.251290000000     0.450390000000    -0.0563981  
C123     C      0.595720000000     0.168270000000     0.379520000000     0.0346923  
C124     C      0.781240000000     0.634440000000     0.486020000000    -0.031723   
C125     C      0.685540000000     0.832470000000     0.481730000000    -0.0300395  
C126     C      0.602000000000     0.810480000000     0.469650000000    -0.00745911 
C127     C      0.656290000000     0.863670000000     0.465480000000    -0.00750119 
C128     C      0.721350000000     0.742540000000     0.445380000000    -0.0541586  
C129     C      0.744000000000     0.723980000000     0.523710000000    -0.0536353  
C130     C      0.703110000000     0.762440000000     0.477400000000     0.0611872  
C131     C      0.633800000000     0.781770000000     0.485670000000    -0.0300198  
C132     C      0.762220000000     0.704050000000     0.491680000000     0.0614621  
C133     C      0.831990000000     0.686250000000     0.484450000000    -0.054629   
C134     C      0.750700000000     0.713590000000     0.452310000000    -0.0565283  
C135     C      0.864340000000     0.657780000000     0.500310000000     0.0930765  
C136     C      0.810730000000     0.603380000000     0.502100000000    -0.00251107 
C137     C      0.714690000000     0.752980000000     0.516770000000    -0.0565278  
C138     C      0.878620000000     0.672290000000     0.582420000000     0.0359734  
C139     C      0.284270000000     0.138440000000     0.485570000000    -0.031397   
C140     C      0.188990000000     0.336700000000     0.487310000000    -0.0296716  
C141     C      0.105810000000     0.313500000000     0.474670000000    -0.00695209 
C142     C      0.159230000000     0.368000000000     0.472210000000    -0.00741931 
C143     C      0.225060000000     0.247810000000     0.447480000000    -0.0539865  
C144     C      0.249380000000     0.227680000000     0.524930000000    -0.0532902  
C145     C      0.207630000000     0.267140000000     0.480300000000     0.0615249  
C146     C      0.138230000000     0.285070000000     0.489810000000    -0.0298658  
C147     C      0.266750000000     0.208310000000     0.492120000000     0.0618714  
C148     C      0.335890000000     0.189200000000     0.482320000000    -0.05387    
C149     C      0.254410000000     0.218600000000     0.453200000000    -0.0564604  
C150     C      0.368170000000     0.160280000000     0.497430000000     0.0922177  
C151     C      0.313530000000     0.106800000000     0.500880000000    -0.00245034 
C152     C      0.220020000000     0.256880000000     0.519210000000    -0.0563681  
C153     C      0.385020000000     0.175450000000     0.578930000000     0.0334807  
C154     C      0.185420000000     0.638460000000     0.485590000000    -0.0311175  
C155     C      0.282000000000     0.836330000000     0.493150000000    -0.0300866  
C156     C      0.364470000000     0.813100000000     0.509490000000    -0.00789254 
C157     C      0.311190000000     0.867280000000     0.510130000000    -0.00775782 
C158     C      0.243450000000     0.746700000000     0.529050000000    -0.0538787  
C159     C      0.223190000000     0.728220000000     0.450050000000    -0.0533725  
C160     C      0.262850000000     0.766540000000     0.497640000000     0.0609261  
C161     C      0.332890000000     0.784600000000     0.492490000000    -0.0299713  
C162     C      0.203790000000     0.708370000000     0.481460000000     0.0613929  
C163     C      0.133990000000     0.689530000000     0.487390000000    -0.0543879  
C164     C      0.214180000000     0.717840000000     0.521180000000    -0.0563018  
C165     C      0.102120000000     0.660770000000     0.470840000000     0.0932941  
C166     C      0.156540000000     0.607250000000     0.468600000000    -0.00342587 
C167     C      0.252500000000     0.757050000000     0.457930000000    -0.0562019  
C168     C      0.088040000000     0.677070000000     0.389050000000     0.0387808  
C169     C      0.780470000000     0.472860000000     0.335980000000    -0.0312884  
C170     C      0.686890000000     0.477530000000     0.136260000000    -0.0300603  
C171     C      0.604670000000     0.456610000000     0.156390000000    -0.00699126 
C172     C      0.658900000000     0.462070000000     0.103480000000    -0.00733783 
C173     C      0.724950000000     0.436290000000     0.223610000000    -0.0541501  
C174     C      0.741030000000     0.514470000000     0.248890000000    -0.0531503  
C175     C      0.704660000000     0.468400000000     0.205820000000     0.061358   
C176     C      0.635000000000     0.472490000000     0.186670000000    -0.0301669  
C177     C      0.761290000000     0.482370000000     0.266680000000     0.061477   
C178     C      0.831340000000     0.479630000000     0.284880000000    -0.0536566  
C179     C      0.753100000000     0.443080000000     0.253770000000    -0.0564347  
C180     C      0.861730000000     0.497120000000     0.314450000000     0.0915744  
C181     C      0.808360000000     0.489240000000     0.368450000000    -0.00290096 
C182     C      0.712930000000     0.507690000000     0.218710000000    -0.056408   
C183     C      0.864200000000     0.581360000000     0.305780000000     0.0335509  
C184     C      0.143380000000     0.467220000000     0.291540000000    -0.0322623  
C185     C      0.286340000000     0.509600000000     0.135770000000    -0.0300158  
C186     C      0.363230000000     0.474170000000     0.156970000000    -0.00577116 
C187     C      0.323220000000     0.519450000000     0.110660000000    -0.00761238 
C188     C      0.273770000000     0.497090000000     0.246620000000    -0.053222   
C189     C      0.194010000000     0.498900000000     0.222480000000    -0.0528737  
C190     C      0.264960000000     0.497020000000     0.205550000000     0.0602656  
C191     C      0.323810000000     0.464080000000     0.177730000000    -0.0305944  
C192     C      0.202820000000     0.498440000000     0.263520000000     0.0607766  
C193     C      0.181660000000     0.512420000000     0.333230000000    -0.0545443  
C194     C      0.243370000000     0.496340000000     0.275210000000    -0.054432   
C195     C      0.144800000000     0.523360000000     0.358330000000     0.0927628  
C196     C      0.104150000000     0.478230000000     0.312160000000    -0.00110204 
C197     C      0.224320000000     0.496790000000     0.193890000000    -0.0546561  
C198     C      0.117320000000     0.600690000000     0.337330000000     0.0447098  
C199     C      0.137550000000     0.490340000000     0.685940000000    -0.031542   
C200     C      0.334230000000     0.492050000000     0.783410000000    -0.0296379  
C201     C      0.311480000000     0.505990000000     0.866430000000    -0.00737283 
C202     C      0.365460000000     0.507820000000     0.812880000000    -0.00736732 
C203     C      0.245970000000     0.530140000000     0.745430000000    -0.0541283  
C204     C      0.225910000000     0.451810000000     0.723690000000    -0.0531474  
C205     C      0.264710000000     0.497900000000     0.764600000000     0.0612217  
C206     C      0.282790000000     0.490280000000     0.834390000000    -0.0298593  
C207     C      0.207100000000     0.484040000000     0.704580000000     0.0613085  
C208     C      0.188760000000     0.491100000000     0.634750000000    -0.0544188  
C209     C      0.217400000000     0.523410000000     0.715650000000    -0.0563397  
C210     C      0.159860000000     0.475140000000     0.602750000000     0.0927996  
C211     C      0.106100000000     0.474110000000     0.657010000000    -0.00279886 
C212     C      0.254510000000     0.458530000000     0.753430000000    -0.0563568  
C213     C      0.174250000000     0.392850000000     0.588630000000     0.0371078  
C214     C      0.784190000000     0.493410000000     0.638170000000    -0.0314104  
C215     C      0.686950000000     0.488130000000     0.834590000000    -0.0300296  
C216     C      0.604700000000     0.507380000000     0.812770000000    -0.00717479 
C217     C      0.658230000000     0.503360000000     0.866680000000    -0.00703352 
C218     C      0.726600000000     0.529950000000     0.748800000000    -0.0540793  
C219     C      0.744890000000     0.452020000000     0.724240000000    -0.0535258  
C220     C      0.706080000000     0.497520000000     0.765670000000     0.0613028  
C221     C      0.636020000000     0.492070000000     0.783160000000    -0.0301158  
C222     C      0.765350000000     0.484440000000     0.707330000000     0.0619003  
C223     C      0.835440000000     0.489480000000     0.689200000000    -0.0537141  
C224     C      0.756040000000     0.523610000000     0.719820000000    -0.0567713  
C225     C      0.866420000000     0.472630000000     0.659790000000     0.0918309  
C226     C      0.812360000000     0.477210000000     0.606030000000    -0.00229522 
C227     C      0.715470000000     0.458350000000     0.753200000000    -0.0563648  
C228     C      0.872380000000     0.388790000000     0.670380000000     0.0341164  
C229     C      0.641930000000     0.682960000000     0.982420000000    -0.0305635  
C230     C      0.839350000000     0.779390000000     0.980300000000    -0.0320424  
C231     C      0.815530000000     0.861310000000     0.961820000000    -0.00700051 
C232     C      0.870430000000     0.808780000000     0.963990000000    -0.00696649 
C233     C      0.751790000000     0.738930000000     0.941930000000    -0.0538618  
C234     C      0.730310000000     0.720410000000     0.020590000000    -0.0520319  
C235     C      0.770190000000     0.759210000000     0.973650000000     0.059395   
C236     C      0.786950000000     0.829570000000     0.978230000000    -0.0319678  
C237     C      0.711760000000     0.700300000000     0.988870000000     0.0600341  
C238     C      0.692010000000     0.630590000000     0.983930000000    -0.0558293  
C239     C      0.722800000000     0.709700000000     0.949330000000    -0.0564314  
C240     C      0.662230000000     0.599720000000     0.000540000000     0.0958326  
C241     C      0.609690000000     0.655270000000     0.999280000000    -0.00538065 
C242     C      0.759310000000     0.749630000000     0.013190000000    -0.0548327  
C243     C      0.675450000000     0.587630000000     0.083220000000     0.0353288  
C244     C      0.631280000000     0.279380000000     0.978950000000    -0.0332804  
C245     C      0.829490000000     0.183910000000     0.982470000000    -0.0294941  
C246     C      0.808630000000     0.100120000000     0.995450000000    -0.00953405 
C247     C      0.861180000000     0.155220000000     0.998760000000    -0.00941069 
C248     C      0.739430000000     0.218870000000     0.019340000000    -0.0526119  
C249     C      0.720480000000     0.241350000000     0.941050000000    -0.05332    
C250     C      0.759340000000     0.200710000000     0.987270000000     0.0597071  
C251     C      0.779500000000     0.131500000000     0.979300000000    -0.029404   
C252     C      0.700670000000     0.259620000000     0.973130000000     0.0597154  
C253     C      0.683610000000     0.329600000000     0.980460000000    -0.0559294  
C254     C      0.710340000000     0.248110000000     0.012480000000    -0.0549039  
C255     C      0.655450000000     0.362340000000     0.964800000000     0.0922474  
C256     C      0.600510000000     0.309300000000     0.963050000000    -0.00242921 
C257     C      0.749590000000     0.212120000000     0.947920000000    -0.0563711  
C258     C      0.669800000000     0.376810000000     0.882690000000     0.0324126  
C259     C      0.140660000000     0.786070000000     0.993680000000    -0.0333063  
C260     C      0.339220000000     0.690860000000     0.994000000000    -0.0349854  
C261     C      0.315810000000     0.608200000000     0.009380000000    -0.00259524 
C262     C      0.370440000000     0.661050000000     0.009320000000    -0.00321846 
C263     C      0.251060000000     0.729530000000     0.032880000000    -0.0552147  
C264     C      0.229640000000     0.749720000000     0.954610000000    -0.0517937  
C265     C      0.269840000000     0.710300000000     0.000720000000     0.0636847  
C266     C      0.287140000000     0.640310000000     0.993940000000    -0.0352453  
C267     C      0.210640000000     0.768710000000     0.986750000000     0.0592854  
C268     C      0.190780000000     0.838380000000     0.992170000000    -0.0555394  
C269     C      0.221710000000     0.758580000000     0.026080000000    -0.0536272  
C270     C      0.161350000000     0.869020000000     0.974690000000     0.0927299  
C271     C      0.108440000000     0.813930000000     0.976890000000    -0.00186736 
C272     C      0.259030000000     0.720770000000     0.961390000000    -0.0588725  
C273     C      0.174520000000     0.875950000000     0.891410000000     0.0395849  
C274     C      0.131370000000     0.190650000000     0.989310000000    -0.0348328  
C275     C      0.329020000000     0.287100000000     0.983060000000    -0.0319142  
C276     C      0.308010000000     0.370830000000     0.970000000000    -0.00737008 
C277     C      0.360430000000     0.315800000000     0.966180000000    -0.00716253 
C278     C      0.239000000000     0.251130000000     0.947740000000    -0.0540557  
C279     C      0.220530000000     0.229800000000     0.026460000000    -0.0516105  
C280     C      0.258850000000     0.270070000000     0.979400000000     0.0595688  
C281     C      0.279000000000     0.339490000000     0.986590000000    -0.0318425  
C282     C      0.200710000000     0.210820000000     0.994780000000     0.0585495  
C283     C      0.183810000000     0.140550000000     0.989040000000    -0.0572641  
C284     C      0.210190000000     0.221710000000     0.955210000000    -0.0557501  
C285     C      0.155650000000     0.108070000000     0.005350000000     0.096066   
C286     C      0.100630000000     0.161010000000     0.005840000000     0.00184399 
C287     C      0.249390000000     0.259170000000     0.018980000000    -0.0551646  
C288     C      0.169860000000     0.095370000000     0.087770000000     0.0329937  
C289     C      0.695220000000     0.982850000000     0.625790000000    -0.032325   
C290     C      0.789660000000     0.989460000000     0.824880000000    -0.0319612  
C291     C      0.873550000000     0.973550000000     0.807020000000    -0.00720668 
C292     C      0.817060000000     0.973990000000     0.858130000000    -0.00705289 
C293     C      0.765260000000     0.020670000000     0.741800000000    -0.055143   
C294     C      0.725970000000     0.955270000000     0.707210000000    -0.0558934  
C295     C      0.774400000000     0.981570000000     0.754690000000     0.0593887  
C296     C      0.843310000000     0.988900000000     0.776290000000    -0.0318971  
C297     C      0.717030000000     0.994350000000     0.694160000000     0.0584295  
C298     C      0.646400000000     0.992150000000     0.678530000000    -0.0592946  
C299     C      0.736890000000     0.026850000000     0.711720000000    -0.0515642  
C300     C      0.615130000000     0.008930000000     0.649440000000     0.0971935  
C301     C      0.666170000000     0.998300000000     0.593830000000    -0.00461865 
C302     C      0.754540000000     0.949060000000     0.737130000000    -0.0541466  
C303     C      0.614520000000     0.093510000000     0.654320000000     0.0371427  
C304     C      0.193230000000     0.002600000000     0.842180000000    -0.0259466  
C305     C      0.291300000000     0.988770000000     0.646640000000    -0.0333413  
C306     C      0.375320000000     0.003890000000     0.664700000000    -0.00215758 
C307     C      0.319080000000     0.002860000000     0.613240000000    -0.00240522 
C308     C      0.255730000000     0.032830000000     0.732020000000    -0.0518389  
C309     C      0.235300000000     0.956200000000     0.758840000000    -0.0533583  
C310     C      0.275420000000     0.999390000000     0.716130000000     0.0583647  
C311     C      0.344520000000     0.990110000000     0.695670000000    -0.0352636  
C312     C      0.215470000000     0.989620000000     0.774560000000     0.0604635  
C313     C      0.144780000000     0.995760000000     0.789060000000    -0.0555831  
C314     C      0.225940000000     0.028130000000     0.760960000000    -0.0553245  
C315     C      0.112080000000     0.980660000000     0.817550000000     0.0925059  
C316     C      0.163720000000     0.988010000000     0.873910000000    -0.00773205 
C317     C      0.265000000000     0.960890000000     0.729800000000    -0.0555608  
C318     C      0.100950000000     0.897200000000     0.807870000000     0.036653   
C319     C      0.128130000000     0.992470000000     0.193620000000    -0.0330345  
C320     C      0.324020000000     0.982300000000     0.291350000000    -0.029346   
C321     C      0.305610000000     0.997980000000     0.375140000000    -0.00931453 
C322     C      0.357240000000     0.996910000000     0.319060000000    -0.00923633 
C323     C      0.237850000000     0.025240000000     0.255720000000    -0.0524027  
C324     C      0.212520000000     0.948120000000     0.235190000000    -0.0530716  
C325     C      0.254420000000     0.992080000000     0.275310000000     0.0598189  
C326     C      0.274830000000     0.983600000000     0.344430000000    -0.0295931  
C327     C      0.196180000000     0.981260000000     0.215400000000     0.0601775  
C328     C      0.181310000000     0.987850000000     0.144890000000    -0.0563477  
C329     C      0.208960000000     0.020020000000     0.225980000000    -0.0549105  
C330     C      0.153030000000     0.972670000000     0.112060000000     0.0938629  
C331     C      0.096730000000     0.977500000000     0.163970000000    -0.00316424 
C332     C      0.241450000000     0.953340000000     0.264890000000    -0.0561299  
C333     C      0.164330000000     0.889630000000     0.099550000000     0.0399478  
C334     C      0.626120000000     0.971080000000     0.275290000000    -0.0309755  
C335     C      0.824760000000     0.980740000000     0.180510000000    -0.0317     
C336     C      0.807240000000     0.963530000000     0.096850000000    -0.00695088 
C337     C      0.858380000000     0.965960000000     0.153220000000    -0.00692582 
C338     C      0.741240000000     0.010190000000     0.204720000000    -0.0547556  
C339     C      0.707850000000     0.944370000000     0.244330000000    -0.0564701  
C340     C      0.754800000000     0.971280000000     0.195780000000     0.0595401  
C341     C      0.776130000000     0.978400000000     0.126900000000    -0.0318034  
C342     C      0.694250000000     0.983280000000     0.253170000000     0.0601756  
C343     C      0.679010000000     0.980780000000     0.323800000000    -0.0537365  
C344     C      0.711150000000     0.015980000000     0.233130000000    -0.0518014  
C345     C      0.650100000000     0.997650000000     0.355110000000     0.0910672  
C346     C      0.594170000000     0.986510000000     0.304320000000    -0.00468439 
C347     C      0.737810000000     0.938550000000     0.215750000000    -0.0538044  
C348     C      0.655390000000     0.082210000000     0.355730000000     0.0396844  
C349     C      0.988570000000     0.191810000000     0.839940000000    -0.0350362  
C350     C      0.997140000000     0.285760000000     0.641030000000    -0.0316489  
C351     C      0.984850000000     0.369890000000     0.661250000000    -0.00917141 
C352     C      0.981870000000     0.314200000000     0.608620000000    -0.00658929 
C353     C      0.027980000000     0.257840000000     0.722900000000    -0.0554783  
C354     C      0.960950000000     0.223090000000     0.759080000000    -0.0556231  
C355     C      0.989310000000     0.269590000000     0.711020000000     0.0602028  
C356     C      0.999990000000     0.338300000000     0.690570000000    -0.0307296  
C357     C      0.999610000000     0.211480000000     0.771140000000     0.0585161  
C358     C      0.991860000000     0.141570000000     0.787790000000    -0.0597868  
C359     C      0.032940000000     0.229040000000     0.752790000000    -0.0513369  
C360     C      0.006040000000     0.109140000000     0.816970000000     0.0978082  
C361     C      0.002390000000     0.162130000000     0.871930000000     0.00194073 
C362     C      0.955990000000     0.252010000000     0.729330000000    -0.0543148  
C363     C      0.089340000000     0.096470000000     0.808740000000     0.0371078  
C364     C      0.982870000000     0.641210000000     0.684360000000    -0.030886   
C365     C      0.994170000000     0.839520000000     0.778960000000    -0.0319367  
C366     C      0.976990000000     0.815980000000     0.861200000000    -0.0060385  
C367     C      0.979890000000     0.871330000000     0.808540000000    -0.00631084 
C368     C      0.021810000000     0.758150000000     0.747910000000    -0.0550438  
C369     C      0.954520000000     0.723580000000     0.712050000000    -0.0563059  
C370     C      0.983240000000     0.770750000000     0.759180000000     0.0601102  
C371     C      0.991600000000     0.787200000000     0.828940000000    -0.0319851  
C372     C      0.993100000000     0.710830000000     0.700940000000     0.0603462  
C373     C      0.983970000000     0.691170000000     0.631950000000    -0.0536323  
C374     C      0.026560000000     0.728410000000     0.718970000000    -0.051854   
C375     C      0.998420000000     0.660980000000     0.600610000000     0.0910722  
C376     C      0.997180000000     0.608240000000     0.656120000000    -0.00434793 
C377     C      0.949780000000     0.753330000000     0.740980000000    -0.0538553  
C378     C      0.081090000000     0.671670000000     0.585910000000     0.0320783  
C379     C      0.983580000000     0.778400000000     0.130900000000    -0.0324128  
C380     C      0.989760000000     0.684390000000     0.329760000000    -0.0312843  
C381     C      0.977040000000     0.600350000000     0.309580000000    -0.00717134 
C382     C      0.974420000000     0.655960000000     0.362130000000    -0.00678808 
C383     C      0.949490000000     0.718860000000     0.241520000000    -0.0540753  
C384     C      0.026890000000     0.740440000000     0.218230000000    -0.0511636  
C385     C      0.982470000000     0.700610000000     0.259810000000     0.0603252  
C386     C      0.992320000000     0.631790000000     0.280200000000    -0.0311978  
C387     C      0.993910000000     0.758610000000     0.199860000000     0.0591686  
C388     C      0.988010000000     0.828750000000     0.182940000000    -0.0577598  
C389     C      0.955020000000     0.747770000000     0.211850000000    -0.0557546  
C390     C      0.004100000000     0.860370000000     0.153890000000     0.0976948  
C391     C      0.998520000000     0.807660000000     0.099000000000    -0.0040825  
C392     C      0.021360000000     0.711720000000     0.248050000000    -0.0550637  
C393     C      0.088230000000     0.865160000000     0.161850000000     0.0446607  
C394     C      0.976500000000     0.182560000000     0.141370000000    -0.0335399  
C395     C      0.976180000000     0.279320000000     0.338520000000    -0.0294135  
C396     C      0.991380000000     0.361870000000     0.314320000000    -0.00942234 
C397     C      0.992340000000     0.309000000000     0.369360000000    -0.00924298 
C398     C      0.015150000000     0.240280000000     0.250780000000    -0.0526851  
C399     C      0.937070000000     0.218690000000     0.229860000000    -0.0532307  
C400     C      0.982770000000     0.259360000000     0.269320000000     0.0596084  
C401     C      0.975310000000     0.329450000000     0.286310000000    -0.0292706  
C402     C      0.969450000000     0.199810000000     0.211120000000     0.0597253  
C403     C      0.976760000000     0.130260000000     0.191640000000    -0.0564332  
C404     C      0.008690000000     0.210730000000     0.221920000000    -0.0549504  
C405     C      0.961610000000     0.098730000000     0.161780000000     0.0933324  
C406     C      0.961030000000     0.154010000000     0.109190000000    -0.00207881 
C407     C      0.943530000000     0.248220000000     0.258770000000    -0.056337   
C408     C      0.879050000000     0.084300000000     0.173600000000     0.0369094  
H1       H      0.927040000000     0.923860000000     0.038390000000     0.2082     
H2       H      0.038230000000     0.041640000000     0.047140000000     0.209935   
H3       H      0.928650000000     0.043240000000     0.927380000000     0.206098   
H4       H      0.045680000000     0.930810000000     0.928620000000     0.213258   
H5       H      0.925730000000     0.541290000000     0.428400000000     0.210354   
H6       H      0.041650000000     0.428080000000     0.428170000000     0.209203   
H7       H      0.929270000000     0.428550000000     0.544300000000     0.212124   
H8       H      0.042650000000     0.544320000000     0.540910000000     0.210618   
H9       H      0.423630000000     0.926300000000     0.433940000000     0.207867   
H10      H      0.538820000000     0.039970000000     0.422270000000     0.212935   
H11      H      0.545770000000     0.930050000000     0.541060000000     0.206952   
H12      H      0.432170000000     0.045470000000     0.543320000000     0.212281   
H13      H      0.540430000000     0.430140000000     0.923690000000     0.209237   
H14      H      0.426240000000     0.425810000000     0.039330000000     0.207066   
H15      H      0.429220000000     0.547670000000     0.932280000000     0.211435   
H16      H      0.544520000000     0.536810000000     0.045570000000     0.212339   
H17      H      0.549520000000     0.241030000000     0.204340000000     0.0445325  
H18      H      0.467660000000     0.118330000000     0.247040000000     0.0349661  
H19      H      0.472950000000     0.212530000000     0.331910000000     0.0473159  
H20      H      0.525820000000     0.297580000000     0.089010000000     0.0387143  
H21      H      0.430430000000     0.094290000000     0.303860000000     0.0414949  
H22      H      0.494300000000     0.329710000000     0.209360000000     0.0341409  
H23      H      0.486670000000     0.243660000000     0.116560000000     0.0341285  
H24      H      0.485820000000     0.384920000000     0.159650000000     0.038554   
H25      H      0.483250000000     0.161680000000     0.386890000000     0.0265484  
H26      H      0.538100000000     0.191130000000     0.257050000000     0.0412593  
H27      H      0.476960000000     0.067730000000     0.301510000000     0.038136   
H28      H      0.422190000000     0.258480000000     0.193220000000     0.0402351  
H29      H      0.512390000000     0.125690000000     0.276280000000     0.037361   
H30      H      0.477300000000     0.298900000000     0.066140000000     0.0380401  
H31      H      0.449150000000     0.325890000000     0.180090000000     0.0361667  
H32      H      0.444640000000     0.275970000000     0.126570000000     0.0359316  
H33      H      0.410770000000     0.208540000000     0.245920000000     0.046114   
H34      H      0.515020000000     0.179820000000     0.325410000000     0.0429531  
H35      H      0.531640000000     0.357520000000     0.154420000000     0.0382904  
H36      H      0.412780000000     0.745110000000     0.261580000000     0.0441867  
H37      H      0.487330000000     0.615810000000     0.226360000000     0.0347824  
H38      H      0.498700000000     0.709510000000     0.141530000000     0.0464416  
H39      H      0.433050000000     0.801730000000     0.377770000000     0.0357705  
H40      H      0.527710000000     0.587660000000     0.173800000000     0.040449   
H41      H      0.471650000000     0.831020000000     0.259250000000     0.0341077  
H42      H      0.471140000000     0.745680000000     0.353010000000     0.0338624  
H43      H      0.480510000000     0.886410000000     0.309040000000     0.0388863  
H44      H      0.492080000000     0.659660000000     0.085670000000     0.0250874  
H45      H      0.424770000000     0.692990000000     0.211130000000     0.0409105  
H46      H      0.478820000000     0.565820000000     0.170590000000     0.0383341  
H47      H      0.539930000000     0.756070000000     0.280430000000     0.0407244  
H48      H      0.446600000000     0.626740000000     0.192760000000     0.0371199  
H49      H      0.480180000000     0.800620000000     0.403340000000     0.0390137  
H50      H      0.515280000000     0.825450000000     0.290460000000     0.0374517  
H51      H      0.514990000000     0.776040000000     0.344830000000     0.0370374  
H52      H      0.551860000000     0.703610000000     0.230390000000     0.0463387  
H53      H      0.453830000000     0.680010000000     0.143280000000     0.0420797  
H54      H      0.433280000000     0.861130000000     0.312360000000     0.036046   
H55      H      0.431620000000     0.778380000000     0.713580000000     0.0407674  
H56      H      0.478310000000     0.640450000000     0.760830000000     0.0345521  
H57      H      0.484900000000     0.726980000000     0.853360000000     0.0463145  
H58      H      0.535070000000     0.811230000000     0.606910000000     0.0356352  
H59      H      0.441220000000     0.611610000000     0.815220000000     0.0396618  
H60      H      0.501290000000     0.852120000000     0.723640000000     0.033959   
H61      H      0.497260000000     0.758480000000     0.638240000000     0.03378    
H62      H      0.491160000000     0.902750000000     0.669260000000     0.0392011  
H63      H      0.495300000000     0.671120000000     0.903750000000     0.0240754  
H64      H      0.421130000000     0.728190000000     0.766200000000     0.0461276  
H65      H      0.487790000000     0.585410000000     0.810630000000     0.0383463  
H66      H      0.559250000000     0.762970000000     0.724350000000     0.0436818  
H67      H      0.523190000000     0.645080000000     0.790380000000     0.0366356  
H68      H      0.486920000000     0.808660000000     0.583400000000     0.0388792  
H69      H      0.456490000000     0.844380000000     0.694610000000     0.0373695  
H70      H      0.454140000000     0.790170000000     0.645210000000     0.0372523  
H71      H      0.548750000000     0.712800000000     0.777010000000     0.0402061  
H72      H      0.526570000000     0.694540000000     0.843690000000     0.0409734  
H73      H      0.538000000000     0.876680000000     0.666720000000     0.0357975  
H74      H      0.428220000000     0.213350000000     0.690600000000     0.0414604  
H75      H      0.471340000000     0.260750000000     0.830040000000     0.0347454  
H76      H      0.477710000000     0.353690000000     0.743870000000     0.0465454  
H77      H      0.534190000000     0.108450000000     0.659680000000     0.0431276  
H78      H      0.433240000000     0.315140000000     0.858080000000     0.0417722  
H79      H      0.499110000000     0.224620000000     0.618280000000     0.0353307  
H80      H      0.494640000000     0.138880000000     0.711540000000     0.0347547  
H81      H      0.490230000000     0.169900000000     0.567470000000     0.0425795  
H82      H      0.486470000000     0.404270000000     0.799550000000     0.0230188  
H83      H      0.415890000000     0.265440000000     0.740950000000     0.0464584  
H84      H      0.479220000000     0.310510000000     0.885240000000     0.0376801  
H85      H      0.555320000000     0.225930000000     0.708740000000     0.0447363  
H86      H      0.515980000000     0.290810000000     0.826090000000     0.0366007  
H87      H      0.486570000000     0.083850000000     0.661250000000     0.0403013  
H88      H      0.454620000000     0.194960000000     0.625260000000     0.0387111  
H89      H      0.452130000000     0.145130000000     0.678940000000     0.0370716  
H90      H      0.542980000000     0.278060000000     0.759060000000     0.0405596  
H91      H      0.519250000000     0.344590000000     0.776610000000     0.0408445  
H92      H      0.536900000000     0.168430000000     0.593830000000     0.0394789  
H93      H      0.771800000000     0.264850000000     0.425210000000     0.0407244  
H94      H      0.718810000000     0.126740000000     0.474970000000     0.0355294  
H95      H      0.630390000000     0.217550000000     0.468180000000     0.0467451  
H96      H      0.869990000000     0.305870000000     0.533400000000     0.0366424  
H97      H      0.666280000000     0.098350000000     0.434930000000     0.0442327  
H98      H      0.753260000000     0.339910000000     0.492850000000     0.0341798  
H99      H      0.843510000000     0.250800000000     0.495130000000     0.0341031  
H100     H      0.805340000000     0.393140000000     0.484720000000     0.0393568  
H101     H      0.576640000000     0.165100000000     0.477230000000     0.0252883  
H102     H      0.720570000000     0.213630000000     0.412820000000     0.0465461  
H103     H      0.665620000000     0.074570000000     0.482940000000     0.0406197  
H104     H      0.752480000000     0.253410000000     0.552190000000     0.0446228  
H105     H      0.685720000000     0.135340000000     0.516690000000     0.0379147  
H106     H      0.896210000000     0.303600000000     0.486660000000     0.0390673  
H107     H      0.785000000000     0.332970000000     0.449780000000     0.0372828  
H108     H      0.837250000000     0.281320000000     0.451070000000     0.0371472  
H109     H      0.701060000000     0.202390000000     0.539780000000     0.0411348  
H110     H      0.634760000000     0.187450000000     0.512400000000     0.042139   
H111     H      0.806940000000     0.367850000000     0.532020000000     0.0373491  
H112     H      0.701140000000     0.768020000000     0.542040000000     0.0402193  
H113     H      0.750780000000     0.626600000000     0.496980000000     0.0345576  
H114     H      0.839250000000     0.717570000000     0.493460000000     0.0466317  
H115     H      0.597300000000     0.804210000000     0.437330000000     0.0382776  
H116     H      0.806090000000     0.600220000000     0.534870000000     0.0416459  
H117     H      0.715890000000     0.839420000000     0.469890000000     0.0340989  
H118     H      0.625440000000     0.750750000000     0.476780000000     0.033793   
H119     H      0.664460000000     0.893270000000     0.478340000000     0.0384071  
H120     H      0.892470000000     0.664830000000     0.483990000000     0.0240646  
H121     H      0.752660000000     0.717010000000     0.554130000000     0.0458211  
H122     H      0.803490000000     0.574030000000     0.488150000000     0.0375166  
H123     H      0.712780000000     0.749590000000     0.414950000000     0.0441457  
H124     H      0.780960000000     0.633020000000     0.452750000000     0.0366012  
H125     H      0.573390000000     0.804020000000     0.485330000000     0.0383378  
H126     H      0.686600000000     0.834700000000     0.514950000000     0.0362163  
H127     H      0.634130000000     0.783290000000     0.518940000000     0.0360597  
H128     H      0.764420000000     0.698730000000     0.427030000000     0.040577   
H129     H      0.832220000000     0.685260000000     0.451150000000     0.0412177  
H130     H      0.660090000000     0.865700000000     0.432500000000     0.0384791  
H131     H      0.206960000000     0.271340000000     0.545060000000     0.0414284  
H132     H      0.253970000000     0.131220000000     0.497360000000     0.034802   
H133     H      0.343980000000     0.220460000000     0.490810000000     0.0473541  
H134     H      0.100730000000     0.307650000000     0.442320000000     0.0359897  
H135     H      0.309460000000     0.103460000000     0.533710000000     0.0397028  
H136     H      0.219210000000     0.344550000000     0.475710000000     0.034984   
H137     H      0.130410000000     0.254120000000     0.480200000000     0.0341608  
H138     H      0.166500000000     0.397090000000     0.486670000000     0.042223   
H139     H      0.395910000000     0.166540000000     0.480150000000     0.0276673  
H140     H      0.258630000000     0.220030000000     0.555010000000     0.0465011  
H141     H      0.305560000000     0.077670000000     0.486860000000     0.0384348  
H142     H      0.215750000000     0.255400000000     0.417410000000     0.0443578  
H143     H      0.283030000000     0.137050000000     0.452310000000     0.0374071  
H144     H      0.077520000000     0.306320000000     0.490640000000     0.0396586  
H145     H      0.190080000000     0.337770000000     0.520570000000     0.0388615  
H146     H      0.138740000000     0.285750000000     0.523110000000     0.0378917  
H147     H      0.267390000000     0.204050000000     0.427360000000     0.041103   
H148     H      0.335060000000     0.187930000000     0.449040000000     0.0432564  
H149     H      0.163450000000     0.371820000000     0.439450000000     0.0365696  
H150     H      0.267050000000     0.771880000000     0.433100000000     0.0405947  
H151     H      0.216110000000     0.631180000000     0.474900000000     0.0349266  
H152     H      0.126380000000     0.720870000000     0.478760000000     0.0477035  
H153     H      0.367260000000     0.807590000000     0.542160000000     0.0381663  
H154     H      0.161560000000     0.604840000000     0.435810000000     0.0448663  
H155     H      0.251310000000     0.844060000000     0.503550000000     0.0343638  
H156     H      0.340270000000     0.753630000000     0.502350000000     0.0338988  
H157     H      0.304050000000     0.896850000000     0.496630000000     0.0383919  
H158     H      0.073780000000     0.667040000000     0.487110000000     0.0271279  
H159     H      0.215550000000     0.721240000000     0.419370000000     0.0466135  
H160     H      0.164130000000     0.577730000000     0.481970000000     0.0388883  
H161     H      0.251120000000     0.753640000000     0.559730000000     0.0443533  
H162     H      0.185310000000     0.636490000000     0.518840000000     0.0365233  
H163     H      0.393720000000     0.805660000000     0.495540000000     0.0384625  
H164     H      0.282400000000     0.838020000000     0.459890000000     0.0365225  
H165     H      0.334160000000     0.785450000000     0.459210000000     0.0363775  
H166     H      0.199720000000     0.702940000000     0.546010000000     0.0408065  
H167     H      0.133430000000     0.688100000000     0.520640000000     0.0427251  
H168     H      0.306140000000     0.869790000000     0.542900000000     0.0381774  
H169     H      0.697700000000     0.533030000000     0.205480000000     0.0415953  
H170     H      0.749120000000     0.480460000000     0.344260000000     0.0345218  
H171     H      0.837810000000     0.491070000000     0.254230000000     0.0462777  
H172     H      0.602980000000     0.423480000000     0.159330000000     0.0377303  
H173     H      0.800370000000     0.521020000000     0.374390000000     0.0399091  
H174     H      0.718060000000     0.468760000000     0.128440000000     0.0352514  
H175     H      0.627380000000     0.460050000000     0.216610000000     0.0341751  
H176     H      0.665960000000     0.478300000000     0.075310000000     0.0420064  
H177     H      0.891630000000     0.484960000000     0.306400000000     0.0243172  
H178     H      0.747180000000     0.544850000000     0.258420000000     0.0464526  
H179     H      0.802840000000     0.472140000000     0.396450000000     0.0376472  
H180     H      0.718880000000     0.405930000000     0.214000000000     0.0442733  
H181     H      0.783130000000     0.439620000000     0.334940000000     0.0365246  
H182     H      0.574790000000     0.468890000000     0.164320000000     0.0393049  
H183     H      0.685380000000     0.510840000000     0.137150000000     0.0389305  
H184     H      0.632540000000     0.505720000000     0.188260000000     0.0377898  
H185     H      0.768530000000     0.417800000000     0.266890000000     0.0404075  
H186     H      0.834810000000     0.446450000000     0.284030000000     0.0415964  
H187     H      0.665220000000     0.429780000000     0.098380000000     0.0386908  
H188     H      0.215350000000     0.496380000000     0.162860000000     0.0394583  
H189     H      0.136060000000     0.457670000000     0.260560000000     0.0328504  
H190     H      0.202870000000     0.538170000000     0.333470000000     0.0462296  
H191     H      0.379480000000     0.497000000000     0.174950000000     0.0393358  
H192     H      0.088390000000     0.501270000000     0.294010000000     0.0431679  
H193     H      0.266600000000     0.536440000000     0.135360000000     0.0335797  
H194     H      0.330970000000     0.454610000000     0.208770000000     0.0320591  
H195     H      0.314080000000     0.521570000000     0.078750000000     0.0401161  
H196     H      0.154220000000     0.524640000000     0.390190000000     0.0254696  
H197     H      0.163270000000     0.501050000000     0.212450000000     0.0428218  
H198     H      0.084750000000     0.451170000000     0.313510000000     0.0335632  
H199     H      0.304550000000     0.497940000000     0.256690000000     0.0420236  
H200     H      0.157610000000     0.441300000000     0.306980000000     0.0377985  
H201     H      0.382100000000     0.446730000000     0.155700000000     0.0343406  
H202     H      0.270180000000     0.484090000000     0.121610000000     0.0360371  
H203     H      0.309030000000     0.438350000000     0.162510000000     0.0378729  
H204     H      0.252250000000     0.495500000000     0.306260000000     0.0395854  
H205     H      0.196880000000     0.486480000000     0.347660000000     0.040684   
H206     H      0.334320000000     0.549570000000     0.119550000000     0.0378977  
H207     H      0.268620000000     0.433080000000     0.767670000000     0.0415433  
H208     H      0.129930000000     0.479800000000     0.716600000000     0.0347622  
H209     H      0.219930000000     0.481870000000     0.627280000000     0.0465679  
H210     H      0.306010000000     0.538560000000     0.870640000000     0.0366449  
H211     H      0.102650000000     0.441390000000     0.662180000000     0.0422135  
H212     H      0.341980000000     0.503250000000     0.753020000000     0.0350281  
H213     H      0.251940000000     0.500160000000     0.842170000000     0.0339807  
H214     H      0.394710000000     0.493870000000     0.805330000000     0.0426534  
H215     H      0.166460000000     0.491380000000     0.574480000000     0.0231145  
H216     H      0.218280000000     0.421380000000     0.715480000000     0.0463968  
H217     H      0.077000000000     0.488470000000     0.664370000000     0.0380064  
H218     H      0.253580000000     0.560570000000     0.753640000000     0.0443446  
H219     H      0.136410000000     0.523680000000     0.685860000000     0.0364459  
H220     H      0.304270000000     0.490810000000     0.895130000000     0.0391809  
H221     H      0.335490000000     0.458740000000     0.782820000000     0.0394747  
H222     H      0.283370000000     0.456930000000     0.834570000000     0.0378901  
H223     H      0.203310000000     0.548850000000     0.701380000000     0.0404306  
H224     H      0.187970000000     0.524460000000     0.634290000000     0.0407738  
H225     H      0.368620000000     0.540690000000     0.808560000000     0.0369363  
H226     H      0.700120000000     0.432780000000     0.765830000000     0.0410577  
H227     H      0.753060000000     0.484650000000     0.630170000000     0.0345853  
H228     H      0.842380000000     0.478830000000     0.720020000000     0.0461865  
H229     H      0.602020000000     0.540410000000     0.809390000000     0.038177   
H230     H      0.805490000000     0.445010000000     0.600970000000     0.0399216  
H231     H      0.717850000000     0.497320000000     0.842980000000     0.0348945  
H232     H      0.628800000000     0.504270000000     0.753040000000     0.0340543  
H233     H      0.665090000000     0.487350000000     0.895020000000     0.0417582  
H234     H      0.895850000000     0.486230000000     0.667240000000     0.024032   
H235     H      0.751770000000     0.421760000000     0.714840000000     0.0464071  
H236     H      0.805900000000     0.493390000000     0.577690000000     0.0383367  
H237     H      0.719700000000     0.560220000000     0.758170000000     0.0439638  
H238     H      0.785830000000     0.526730000000     0.638540000000     0.0372332  
H239     H      0.575320000000     0.494040000000     0.804640000000     0.0387356  
H240     H      0.685860000000     0.454800000000     0.833810000000     0.0385413  
H241     H      0.634280000000     0.458790000000     0.781610000000     0.0368831  
H242     H      0.771430000000     0.549140000000     0.707150000000     0.0407046  
H243     H      0.837670000000     0.522770000000     0.689450000000     0.0417532  
H244     H      0.664060000000     0.535760000000     0.871770000000     0.0384117  
H245     H      0.773050000000     0.764850000000     0.038240000000     0.0403366  
H246     H      0.634900000000     0.714170000000     0.991800000000     0.0348234  
H247     H      0.722900000000     0.622740000000     0.993760000000     0.0464422  
H248     H      0.811190000000     0.863570000000     0.928930000000     0.0380299  
H249     H      0.606140000000     0.661650000000     0.031670000000     0.0454105  
H250     H      0.847900000000     0.748630000000     0.970700000000     0.0341184  
H251     H      0.756290000000     0.836320000000     0.967110000000     0.034053   
H252     H      0.899540000000     0.802310000000     0.978720000000     0.0377594  
H253     H      0.668400000000     0.570790000000     0.985260000000     0.0229502  
H254     H      0.722060000000     0.713510000000     0.051140000000     0.0463567  
H255     H      0.580880000000     0.662790000000     0.984440000000     0.0404121  
H256     H      0.759860000000     0.746010000000     0.911370000000     0.0439834  
H257     H      0.641130000000     0.681740000000     0.949140000000     0.0367658  
H258     H      0.807180000000     0.890690000000     0.975060000000     0.0379386  
H259     H      0.839810000000     0.780360000000     0.013590000000     0.0377259  
H260     H      0.786540000000     0.831390000000     0.011490000000     0.0377056  
H261     H      0.708870000000     0.694650000000     0.924280000000     0.0402714  
H262     H      0.691580000000     0.629030000000     0.950650000000     0.0415771  
H263     H      0.874250000000     0.803250000000     0.931420000000     0.0377317  
H264     H      0.764590000000     0.198590000000     0.922620000000     0.0401931  
H265     H      0.623080000000     0.249000000000     0.967930000000     0.0346426  
H266     H      0.714930000000     0.336560000000     0.971350000000     0.0466065  
H267     H      0.802430000000     0.095440000000     0.027780000000     0.0409882  
H268     H      0.597240000000     0.304810000000     0.930260000000     0.0394106  
H269     H      0.836120000000     0.214500000000     0.993940000000     0.0336162  
H270     H      0.748650000000     0.122830000000     0.988400000000     0.0335868  
H271     H      0.890490000000     0.163510000000     0.985380000000     0.0383852  
H272     H      0.662920000000     0.390350000000     0.981160000000     0.0243762  
H273     H      0.713420000000     0.250000000000     0.910650000000     0.0457949  
H274     H      0.571140000000     0.302360000000     0.977030000000     0.0374693  
H275     H      0.746670000000     0.210420000000     0.049760000000     0.0445646  
H276     H      0.629960000000     0.279010000000     0.012230000000     0.038372   
H277     H      0.802600000000     0.071340000000     0.979860000000     0.0386024  
H278     H      0.831440000000     0.184690000000     0.949230000000     0.0360074  
H279     H      0.780850000000     0.131600000000     0.946030000000     0.0359259  
H280     H      0.695580000000     0.261860000000     0.037800000000     0.0405116  
H281     H      0.682740000000     0.329790000000     0.013760000000     0.0431536  
H282     H      0.863630000000     0.159580000000     0.031630000000     0.0406676  
H283     H      0.273090000000     0.706420000000     0.936010000000     0.0417309  
H284     H      0.133570000000     0.754890000000     0.984230000000     0.0349775  
H285     H      0.221830000000     0.846090000000     0.982720000000     0.047238   
H286     H      0.311320000000     0.604780000000     0.042160000000     0.035742   
H287     H      0.104490000000     0.807370000000     0.944520000000     0.0404429  
H288     H      0.347530000000     0.721280000000     0.004800000000     0.0372658  
H289     H      0.256450000000     0.632960000000     0.004610000000     0.0359421  
H290     H      0.399540000000     0.668110000000     0.994830000000     0.0400067  
H291     H      0.167860000000     0.898460000000     0.988780000000     0.026787   
H292     H      0.221460000000     0.757310000000     0.924210000000     0.0462025  
H293     H      0.079710000000     0.806780000000     0.992070000000     0.0383783  
H294     H      0.259090000000     0.721800000000     0.063280000000     0.045065   
H295     H      0.139890000000     0.787190000000     0.026960000000     0.0394077  
H296     H      0.307620000000     0.579260000000     0.995140000000     0.0367974  
H297     H      0.339840000000     0.691180000000     0.960710000000     0.0393488  
H298     H      0.286980000000     0.639650000000     0.960640000000     0.0379898  
H299     H      0.207540000000     0.772940000000     0.051400000000     0.0411177  
H300     H      0.189850000000     0.840150000000     0.025430000000     0.0450834  
H301     H      0.374190000000     0.665430000000     0.042070000000     0.037938   
H302     H      0.264420000000     0.273190000000     0.043990000000     0.0401735  
H303     H      0.123060000000     0.221250000000     0.999600000000     0.0348943  
H304     H      0.215120000000     0.133870000000     0.998380000000     0.0469362  
H305     H      0.301570000000     0.375250000000     0.937680000000     0.038789   
H306     H      0.097340000000     0.166230000000     0.038510000000     0.0389186  
H307     H      0.335560000000     0.256480000000     0.971640000000     0.0343644  
H308     H      0.248070000000     0.348110000000     0.977740000000     0.0341504  
H309     H      0.389980000000     0.307410000000     0.978940000000     0.0379691  
H310     H      0.163180000000     0.079720000000     0.989610000000     0.0238452  
H311     H      0.213660000000     0.221630000000     0.057030000000     0.0455617  
H312     H      0.071260000000     0.167620000000     0.991700000000     0.0366444  
H313     H      0.246060000000     0.259100000000     0.917160000000     0.0445755  
H314     H      0.130090000000     0.190240000000     0.956030000000     0.0381825  
H315     H      0.302060000000     0.399730000000     0.985400000000     0.0379767  
H316     H      0.331440000000     0.286480000000     0.016280000000     0.0376567  
H317     H      0.280670000000     0.339600000000     0.019850000000     0.0375307  
H318     H      0.195480000000     0.207390000000     0.930180000000     0.0406697  
H319     H      0.183060000000     0.139630000000     0.955740000000     0.0427961  
H320     H      0.362190000000     0.311500000000     0.933260000000     0.0389817  
H321     H      0.761050000000     0.918850000000     0.746930000000     0.0441565  
H322     H      0.726280000000     0.989840000000     0.616040000000     0.0344237  
H323     H      0.641200000000     0.004900000000     0.708910000000     0.0480277  
H324     H      0.877870000000     0.940850000000     0.802350000000     0.0385815  
H325     H      0.674070000000     0.029820000000     0.586560000000     0.0432402  
H326     H      0.758640000000     0.979120000000     0.831270000000     0.0339586  
H327     H      0.852550000000     0.978090000000     0.746190000000     0.034418   
H328     H      0.808510000000     0.989140000000     0.886480000000     0.0372126  
H329     H      0.585380000000     0.997740000000     0.659250000000     0.0216544  
H330     H      0.710670000000     0.929690000000     0.694540000000     0.0398474  
H331     H      0.670580000000     0.980260000000     0.566230000000     0.0369439  
H332     H      0.779850000000     0.046340000000     0.755110000000     0.0401634  
H333     H      0.692290000000     0.949700000000     0.628080000000     0.0356321  
H334     H      0.902730000000     0.988390000000     0.801110000000     0.038632   
H335     H      0.789700000000     0.022830000000     0.825140000000     0.0374673  
H336     H      0.844010000000     0.022250000000     0.776020000000     0.0373732  
H337     H      0.730010000000     0.057100000000     0.702270000000     0.0458325  
H338     H      0.642560000000     0.959090000000     0.680830000000     0.0417188  
H339     H      0.811670000000     0.941370000000     0.862160000000     0.0384791  
H340     H      0.279470000000     0.934530000000     0.717760000000     0.04069    
H341     H      0.224030000000     0.994720000000     0.852120000000     0.0336055  
H342     H      0.139390000000     0.983650000000     0.758460000000     0.0473971  
H343     H      0.380380000000     0.036590000000     0.668450000000     0.0360963  
H344     H      0.171360000000     0.956690000000     0.882000000000     0.0454999  
H345     H      0.260450000000     0.999270000000     0.639660000000     0.0347351  
H346     H      0.353650000000     0.001800000000     0.725480000000     0.0364062  
H347     H      0.310380000000     0.987000000000     0.585320000000     0.0376349  
H348     H      0.083620000000     0.995470000000     0.808700000000     0.0269215  
H349     H      0.227410000000     0.926400000000     0.768910000000     0.046867   
H350     H      0.167930000000     0.006550000000     0.901230000000     0.0422006  
H351     H      0.263240000000     0.062590000000     0.721560000000     0.0443     
H352     H      0.191320000000     0.035820000000     0.839820000000     0.0360492  
H353     H      0.404140000000     0.988530000000     0.671100000000     0.0371353  
H354     H      0.290980000000     0.955420000000     0.647440000000     0.0382063  
H355     H      0.344620000000     0.956790000000     0.697110000000     0.0379994  
H356     H      0.210910000000     0.054410000000     0.772470000000     0.0409245  
H357     H      0.142830000000     0.028990000000     0.786910000000     0.0440177  
H358     H      0.314160000000     0.035410000000     0.608210000000     0.0366759  
H359     H      0.253970000000     0.927200000000     0.279370000000     0.04058    
H360     H      0.118510000000     0.983760000000     0.224290000000     0.035617   
H361     H      0.212170000000     0.976530000000     0.139190000000     0.0476473  
H362     H      0.301560000000     0.030700000000     0.379840000000     0.0408978  
H363     H      0.089850000000     0.945730000000     0.170850000000     0.0465174  
H364     H      0.330970000000     0.992620000000     0.260450000000     0.0339123  
H365     H      0.244870000000     0.995070000000     0.353390000000     0.0336904  
H366     H      0.385340000000     0.981250000000     0.310550000000     0.0388878  
H367     H      0.161590000000     0.988070000000     0.083840000000     0.026248   
H368     H      0.203010000000     0.918140000000     0.227270000000     0.0467046  
H369     H      0.068790000000     0.994930000000     0.168870000000     0.0383376  
H370     H      0.247720000000     0.055190000000     0.263290000000     0.0446485  
H371     H      0.129550000000     0.025770000000     0.192290000000     0.037462   
H372     H      0.299280000000     0.982860000000     0.404090000000     0.0380934  
H373     H      0.323560000000     0.948930000000     0.291290000000     0.0363334  
H374     H      0.273720000000     0.950270000000     0.344810000000     0.0359285  
H375     H      0.196880000000     0.046110000000     0.211060000000     0.0406631  
H376     H      0.182660000000     0.021160000000     0.143440000000     0.0437485  
H377     H      0.361980000000     0.029470000000     0.313900000000     0.0412354  
H378     H      0.748120000000     0.908480000000     0.209350000000     0.0438877  
H379     H      0.616220000000     0.977840000000     0.244240000000     0.0341931  
H380     H      0.709450000000     0.993510000000     0.328780000000     0.0459008  
H381     H      0.803590000000     0.930650000000     0.093070000000     0.0357216  
H382     H      0.586400000000     0.017820000000     0.296030000000     0.041785   
H383     H      0.831430000000     0.970800000000     0.211580000000     0.0350782  
H384     H      0.746300000000     0.966700000000     0.117790000000     0.0341866  
H385     H      0.886350000000     0.981890000000     0.161700000000     0.0420075  
H386     H      0.659900000000     0.986360000000     0.384820000000     0.0242646  
H387     H      0.695610000000     0.918650000000     0.259750000000     0.0404287  
H388     H      0.566760000000     0.968040000000     0.300390000000     0.0378081  
H389     H      0.754080000000     0.036020000000     0.189980000000     0.0413111  
H390     H      0.628670000000     0.937970000000     0.278390000000     0.036332   
H391     H      0.800820000000     0.977740000000     0.067480000000     0.0390176  
H392     H      0.824140000000     0.014090000000     0.180200000000     0.0406675  
H393     H      0.775000000000     0.011720000000     0.125850000000     0.0391463  
H394     H      0.701230000000     0.046100000000     0.239930000000     0.0466233  
H395     H      0.681320000000     0.947710000000     0.327700000000     0.0416345  
H396     H      0.863210000000     0.933490000000     0.158780000000     0.0362381  
H397     H      0.926090000000     0.260680000000     0.720350000000     0.0447647  
H398     H      0.998470000000     0.222350000000     0.848910000000     0.0347921  
H399     H      0.003310000000     0.134760000000     0.757220000000     0.0486778  
H400     H      0.952960000000     0.376270000000     0.667960000000     0.0419666  
H401     H      0.034660000000     0.167360000000     0.878100000000     0.0410813  
H402     H      0.985690000000     0.255160000000     0.634390000000     0.0342805  
H403     H      0.990740000000     0.347250000000     0.721280000000     0.0346919  
H404     H      0.996960000000     0.306380000000     0.580020000000     0.0387464  
H405     H      0.990810000000     0.080820000000     0.808360000000     0.0218549  
H406     H      0.934700000000     0.209680000000     0.772480000000     0.0397895  
H407     H      0.985710000000     0.168620000000     0.899960000000     0.0349511  
H408     H      0.054200000000     0.270830000000     0.709040000000     0.0410069  
H409     H      0.955270000000     0.191680000000     0.838660000000     0.0362076  
H410     H      0.001870000000     0.398020000000     0.666600000000     0.0423244  
H411     H      0.030450000000     0.284720000000     0.640080000000     0.0386251  
H412     H      0.033300000000     0.337480000000     0.689640000000     0.0382759  
H413     H      0.062840000000     0.220150000000     0.761570000000     0.0458651  
H414     H      0.958560000000     0.140870000000     0.786250000000     0.0416356  
H415     H      0.949290000000     0.309010000000     0.604340000000     0.0369384  
H416     H      0.919950000000     0.762710000000     0.749490000000     0.0444731  
H417     H      0.993330000000     0.633870000000     0.715110000000     0.0340634  
H418     H      0.994360000000     0.721800000000     0.623670000000     0.0469329  
H419     H      0.944220000000     0.811830000000     0.865230000000     0.0385344  
H420     H      0.029600000000     0.602940000000     0.661390000000     0.0407532  
H421     H      0.984280000000     0.848420000000     0.748440000000     0.0351491  
H422     H      0.979910000000     0.756770000000     0.835920000000     0.0341618  
H423     H      0.996640000000     0.899480000000     0.802460000000     0.040966   
H424     H      0.982250000000     0.667650000000     0.572320000000     0.0278348  
H425     H      0.928200000000     0.710430000000     0.698520000000     0.0408362  
H426     H      0.981110000000     0.580150000000     0.663970000000     0.038456   
H427     H      0.048130000000     0.771070000000     0.761650000000     0.0411841  
H428     H      0.949550000000     0.641780000000     0.684620000000     0.0371136  
H429     H      0.991680000000     0.807600000000     0.889840000000     0.0383195  
H430     H      0.027480000000     0.838490000000     0.779170000000     0.0394381  
H431     H      0.024910000000     0.785890000000     0.829590000000     0.0385707  
H432     H      0.056380000000     0.718840000000     0.710640000000     0.0461641  
H433     H      0.950640000000     0.691710000000     0.631850000000     0.0430585  
H434     H      0.947680000000     0.877520000000     0.802940000000     0.0387834  
H435     H      0.047340000000     0.698270000000     0.261940000000     0.0418874  
H436     H      0.992720000000     0.747590000000     0.122080000000     0.0346328  
H437     H      0.999210000000     0.835210000000     0.213670000000     0.0466399  
H438     H      0.944960000000     0.594550000000     0.303250000000     0.0413676  
H439     H      0.030670000000     0.801480000000     0.093060000000     0.043838   
H440     H      0.978370000000     0.715010000000     0.336440000000     0.0352388  
H441     H      0.982940000000     0.622870000000     0.249520000000     0.035405   
H442     H      0.989260000000     0.663970000000     0.390800000000     0.0429153  
H443     H      0.991010000000     0.889690000000     0.162630000000     0.0221706  
H444     H      0.056950000000     0.748790000000     0.209490000000     0.0466962  
H445     H      0.981820000000     0.801660000000     0.070870000000     0.0369996  
H446     H      0.919430000000     0.710720000000     0.250450000000     0.0447256  
H447     H      0.950290000000     0.779450000000     0.131940000000     0.0358537  
H448     H      0.993540000000     0.571980000000     0.303910000000     0.0422723  
H449     H      0.023060000000     0.685340000000     0.330730000000     0.0404789  
H450     H      0.025640000000     0.632340000000     0.281100000000     0.0401605  
H451     H      0.929080000000     0.761710000000     0.198400000000     0.0401337  
H452     H      0.954740000000     0.830690000000     0.183860000000     0.0417309  
H453     H      0.941760000000     0.660930000000     0.366110000000     0.0373217  
H454     H      0.918000000000     0.262460000000     0.272690000000     0.0405846  
H455     H      0.965780000000     0.213300000000     0.134160000000     0.0348791  
H456     H      0.966890000000     0.122090000000     0.222420000000     0.0467338  
H457     H      0.023840000000     0.366040000000     0.308340000000     0.0372226  
H458     H      0.928270000000     0.158660000000     0.105660000000     0.0416467  
H459     H      0.986750000000     0.248790000000     0.346770000000     0.0335701  
H460     H      0.985220000000     0.336570000000     0.255330000000     0.0334663  
H461     H      0.977750000000     0.302540000000     0.398540000000     0.0392667  
H462     H      0.977670000000     0.070320000000     0.168360000000     0.0231819  
H463     H      0.906740000000     0.210590000000     0.221840000000     0.0460862  
H464     H      0.975410000000     0.162300000000     0.080370000000     0.0375218  
H465     H      0.045480000000     0.248540000000     0.258640000000     0.0439853  
H466     H      0.009820000000     0.182780000000     0.140690000000     0.0379862  
H467     H      0.976140000000     0.390520000000     0.306890000000     0.0397464  
H468     H      0.942870000000     0.279370000000     0.339590000000     0.0369992  
H469     H      0.941990000000     0.329970000000     0.286880000000     0.0369359  
H470     H      0.034240000000     0.196620000000     0.207900000000     0.0402501  
H471     H      0.010080000000     0.129950000000     0.191530000000     0.0423291  
H472     H      0.024980000000     0.303760000000     0.373160000000     0.0374512  
N1       N      0.423770000000     0.161960000000     0.367360000000    -0.118013   
N2       N      0.471270000000     0.110780000000     0.349350000000    -0.173962   
N3       N      0.465350000000     0.167840000000     0.287010000000    -0.106889   
N4       N      0.495080000000     0.283780000000     0.165230000000    -0.113593   
N5       N      0.489960000000     0.346100000000     0.108190000000    -0.166483   
N6       N      0.548020000000     0.654440000000     0.113460000000    -0.120404   
N7       N      0.494060000000     0.607910000000     0.124130000000    -0.173989   
N8       N      0.497910000000     0.664660000000     0.186930000000    -0.10688    
N9       N      0.466910000000     0.785570000000     0.303600000000    -0.113741   
N10      N      0.472370000000     0.848220000000     0.360390000000    -0.16627    
N11      N      0.435590000000     0.674250000000     0.885080000000    -0.119545   
N12      N      0.481960000000     0.624050000000     0.862070000000    -0.17463    
N13      N      0.476370000000     0.686270000000     0.805010000000    -0.107115   
N14      N      0.503920000000     0.802790000000     0.683470000000    -0.113886   
N15      N      0.497170000000     0.859820000000     0.621420000000    -0.166672   
N16      N      0.427260000000     0.384030000000     0.796510000000    -0.118262   
N17      N      0.474180000000     0.362140000000     0.846590000000    -0.174415   
N18      N      0.469640000000     0.304940000000     0.784230000000    -0.106874   
N19      N      0.501470000000     0.184380000000     0.667530000000    -0.113461   
N20      N      0.497050000000     0.122110000000     0.610360000000    -0.164888   
N21      N      0.600550000000     0.163160000000     0.419470000000    -0.119517   
N22      N      0.616890000000     0.115240000000     0.470760000000    -0.174042   
N23      N      0.677260000000     0.174280000000     0.466540000000    -0.10692    
N24      N      0.795760000000     0.292800000000     0.498470000000    -0.113693   
N25      N      0.855020000000     0.352850000000     0.493700000000    -0.16661    
N26      N      0.871750000000     0.665440000000     0.543050000000    -0.118078   
N27      N      0.852780000000     0.615270000000     0.494840000000    -0.174874   
N28      N      0.792600000000     0.674540000000     0.500120000000    -0.10699    
N29      N      0.673060000000     0.792270000000     0.468920000000    -0.113802   
N30      N      0.614280000000     0.852800000000     0.474200000000    -0.16678    
N31      N      0.377020000000     0.168300000000     0.539830000000    -0.11946    
N32      N      0.355680000000     0.117920000000     0.492920000000    -0.174341   
N33      N      0.296870000000     0.178250000000     0.499350000000    -0.106982   
N34      N      0.177120000000     0.296810000000     0.473090000000    -0.113755   
N35      N      0.117270000000     0.356000000000     0.479710000000    -0.166249   
N36      N      0.094830000000     0.669170000000     0.428230000000    -0.117454   
N37      N      0.114210000000     0.618330000000     0.475610000000    -0.17327    
N38      N      0.173770000000     0.678670000000     0.472040000000    -0.106766   
N39      N      0.293030000000     0.796060000000     0.507100000000    -0.1137     
N40      N      0.353300000000     0.855520000000     0.503220000000    -0.166286   
N41      N      0.863480000000     0.540960000000     0.309850000000    -0.120484   
N42      N      0.850960000000     0.487400000000     0.356340000000    -0.174665   
N43      N      0.790650000000     0.490810000000     0.297180000000    -0.106925   
N44      N      0.675550000000     0.460100000000     0.175020000000    -0.113678   
N45      N      0.616390000000     0.466510000000     0.114890000000    -0.165873   
N46      N      0.130610000000     0.563690000000     0.347480000000    -0.119445   
N47      N      0.111790000000     0.494440000000     0.352420000000    -0.176398   
N48      N      0.170030000000     0.502330000000     0.291850000000    -0.106099   
N49      N      0.297880000000     0.499720000000     0.177190000000    -0.112476   
N50      N      0.355900000000     0.490290000000     0.116650000000    -0.168016   
N51      N      0.167450000000     0.432310000000     0.595400000000    -0.118255   
N52      N      0.117490000000     0.480590000000     0.614690000000    -0.174446   
N53      N      0.177360000000     0.475770000000     0.674360000000    -0.106907   
N54      N      0.294260000000     0.506160000000     0.795030000000    -0.113671   
N55      N      0.353800000000     0.500180000000     0.854880000000    -0.165621   
N56      N      0.870020000000     0.429020000000     0.665360000000    -0.120449   
N57      N      0.854940000000     0.480920000000     0.617800000000    -0.174625   
N58      N      0.795160000000     0.476550000000     0.677200000000    -0.106978   
N59      N      0.676050000000     0.505320000000     0.795650000000    -0.113773   
N60      N      0.615950000000     0.498340000000     0.854570000000    -0.16646    
N61      N      0.669230000000     0.593470000000     0.043570000000    -0.119675   
N62      N      0.620210000000     0.612480000000     0.994310000000    -0.174808   
N63      N      0.681310000000     0.670970000000     0.997800000000    -0.106988   
N64      N      0.799540000000     0.789640000000     0.964690000000    -0.113198   
N65      N      0.857780000000     0.850840000000     0.969800000000    -0.166858   
N66      N      0.663010000000     0.369810000000     0.922060000000    -0.11988    
N67      N      0.612880000000     0.351240000000     0.970420000000    -0.174983   
N68      N      0.671440000000     0.290320000000     0.964770000000    -0.106562   
N69      N      0.789590000000     0.171040000000     0.995710000000    -0.113791   
N70      N      0.850780000000     0.112870000000     0.990880000000    -0.166075   
N71      N      0.168270000000     0.873150000000     0.931380000000    -0.120552   
N72      N      0.119280000000     0.856710000000     0.981460000000    -0.173966   
N73      N      0.180060000000     0.798020000000     0.978340000000    -0.106186   
N74      N      0.299370000000     0.679820000000     0.008980000000    -0.112023   
N75      N      0.358040000000     0.619170000000     0.001990000000    -0.166081   
N76      N      0.163140000000     0.101530000000     0.048250000000    -0.119738   
N77      N      0.113060000000     0.118930000000     0.999420000000    -0.176184   
N78      N      0.171550000000     0.180180000000     0.003790000000    -0.104617   
N79      N      0.288900000000     0.299810000000     0.970340000000    -0.113081   
N80      N      0.350190000000     0.358120000000     0.974370000000    -0.166442   
N81      N      0.614350000000     0.052960000000     0.652090000000    -0.119126   
N82      N      0.624070000000     0.997100000000     0.607670000000    -0.175373   
N83      N      0.686770000000     0.002230000000     0.664350000000    -0.104458   
N84      N      0.803140000000     0.973910000000     0.786060000000    -0.11304    
N85      N      0.859850000000     0.980140000000     0.848590000000    -0.166467   
N86      N      0.106370000000     0.937200000000     0.812400000000    -0.119353   
N87      N      0.121640000000     0.989140000000     0.860030000000    -0.173058   
N88      N      0.184290000000     0.983340000000     0.803750000000    -0.107465   
N89      N      0.304710000000     0.005450000000     0.684990000000    -0.110847   
N90      N      0.361720000000     0.996410000000     0.623260000000    -0.168318   
N91      N      0.158960000000     0.929420000000     0.105670000000    -0.117671   
N92      N      0.110430000000     0.980260000000     0.121930000000    -0.173833   
N93      N      0.167090000000     0.974480000000     0.184250000000    -0.106217   
N94      N      0.285470000000     0.998700000000     0.304550000000    -0.113703   
N95      N      0.347150000000     0.990710000000     0.361710000000    -0.166147   
N96      N      0.653000000000     0.041670000000     0.355920000000    -0.119774   
N97      N      0.608180000000     0.986100000000     0.346350000000    -0.174407   
N98      N      0.664550000000     0.990810000000     0.283550000000    -0.10705    
N99      N      0.786330000000     0.964060000000     0.167170000000    -0.113256   
N100     N      0.848590000000     0.971640000000     0.110460000000    -0.166254   
N101     N      0.049400000000     0.102560000000     0.812570000000    -0.118303   
N102     N      0.997110000000     0.120050000000     0.859000000000    -0.177202   
N103     N      0.006040000000     0.181040000000     0.801070000000    -0.10428    
N104     N      0.982800000000     0.299190000000     0.680290000000    -0.112922   
N105     N      0.988060000000     0.356840000000     0.619060000000    -0.165859   
N106     N      0.041440000000     0.666670000000     0.592870000000    -0.118405   
N107     N      0.991380000000     0.619100000000     0.613590000000    -0.174556   
N108     N      0.999320000000     0.679910000000     0.671530000000    -0.107254   
N109     N      0.976980000000     0.800510000000     0.789750000000    -0.112985   
N110     N      0.984660000000     0.858310000000     0.850570000000    -0.166669   
N111     N      0.047860000000     0.863460000000     0.158110000000    -0.119473   
N112     N      0.994330000000     0.849890000000     0.111960000000    -0.175938   
N113     N      0.001000000000     0.788800000000     0.169890000000    -0.104556   
N114     N      0.975440000000     0.671050000000     0.290460000000    -0.112965   
N115     N      0.981000000000     0.613390000000     0.351700000000    -0.165419   
N116     N      0.918640000000     0.091230000000     0.168030000000    -0.118307   
N117     N      0.968250000000     0.111590000000     0.119890000000    -0.174843   
N118     N      0.961490000000     0.170110000000     0.180760000000    -0.106388   
N119     N      0.990790000000     0.290150000000     0.298540000000    -0.114016   
N120     N      0.986180000000     0.351100000000     0.356930000000    -0.16629    
O1       O      0.976570000000     0.096080000000     0.053820000000    -0.376056   
O2       O      0.988500000000     0.869330000000     0.046720000000    -0.379923   
O3       O      0.915200000000     0.977530000000     0.095860000000    -0.376371   
O4       O      0.045200000000     0.983120000000     0.101520000000    -0.375677   
O5       O      0.095470000000     0.983170000000     0.055260000000    -0.371961   
O6       O      0.869030000000     0.977960000000     0.045520000000    -0.376832   
O7       O      0.987080000000     0.916190000000     0.096400000000    -0.374645   
O8       O      0.975610000000     0.046260000000     0.100570000000    -0.374346   
O9       O      0.024780000000     0.944230000000     0.026230000000    -0.50535    
O10      O      0.942120000000     0.023030000000     0.025180000000    -0.505355   
O11      O      0.943670000000     0.941860000000     0.023080000000    -0.649559   
O12      O      0.022880000000     0.025170000000     0.029040000000    -0.648116   
O13      O      0.987200000000     0.874020000000     0.916930000000    -0.377352   
O14      O      0.988580000000     0.100750000000     0.924160000000    -0.379399   
O15      O      0.873620000000     0.917190000000     0.975920000000    -0.375623   
O16      O      0.100120000000     0.922370000000     0.986360000000    -0.371835   
O17      O      0.096820000000     0.052680000000     0.993250000000    -0.374742   
O18      O      0.870120000000     0.047410000000     0.985460000000    -0.377659   
O19      O      0.924840000000     0.985390000000     0.869360000000    -0.376672   
O20      O      0.054840000000     0.988620000000     0.874990000000    -0.372083   
O21      O      0.874450000000     0.982920000000     0.915410000000    -0.376562   
O22      O      0.101080000000     0.990490000000     0.925240000000    -0.375345   
O23      O      0.922990000000     0.869980000000     0.977750000000    -0.377843   
O24      O      0.917240000000     0.096880000000     0.987960000000    -0.377275   
O25      O      0.047460000000     0.099960000000     0.993660000000    -0.376958   
O26      O      0.052890000000     0.873070000000     0.983060000000    -0.377425   
O27      O      0.988370000000     0.923770000000     0.870130000000    -0.374801   
O28      O      0.991500000000     0.053750000000     0.874670000000    -0.377722   
O29      O      0.026280000000     0.027750000000     0.948070000000    -0.506447   
O30      O      0.947560000000     0.945200000000     0.942380000000    -0.509381   
O31      O      0.944940000000     0.026330000000     0.944240000000    -0.648084   
O32      O      0.028220000000     0.946650000000     0.945310000000    -0.651928   
O33      O      0.984800000000     0.370230000000     0.422550000000    -0.378294   
O34      O      0.982250000000     0.597360000000     0.418180000000    -0.375554   
O35      O      0.917210000000     0.484340000000     0.373170000000    -0.37697    
O36      O      0.047240000000     0.483490000000     0.370990000000    -0.37799    
O37      O      0.095590000000     0.492870000000     0.418460000000    -0.37503    
O38      O      0.869620000000     0.484110000000     0.422130000000    -0.379762   
O39      O      0.983210000000     0.547850000000     0.371050000000    -0.374264   
O40      O      0.983150000000     0.417550000000     0.373310000000    -0.378413   
O41      O      0.023460000000     0.525130000000     0.443670000000    -0.505977   
O42      O      0.943390000000     0.442970000000     0.446110000000    -0.508482   
O43      O      0.942880000000     0.524830000000     0.444820000000    -0.654102   
O44      O      0.025020000000     0.444610000000     0.445050000000    -0.651396   
O45      O      0.986560000000     0.599930000000     0.548250000000    -0.374981   
O46      O      0.987790000000     0.373020000000     0.552580000000    -0.37698    
O47      O      0.870750000000     0.549340000000     0.489840000000    -0.377459   
O48      O      0.097410000000     0.552090000000     0.481430000000    -0.37549    
O49      O      0.098940000000     0.421930000000     0.482000000000    -0.378349   
O50      O      0.872050000000     0.418930000000     0.488830000000    -0.377572   
O51      O      0.920940000000     0.485130000000     0.599720000000    -0.375074   
O52      O      0.051360000000     0.484710000000     0.597700000000    -0.376314   
O53      O      0.872200000000     0.484180000000     0.551870000000    -0.377935   
O54      O      0.099100000000     0.485080000000     0.548870000000    -0.375514   
O55      O      0.918620000000     0.598090000000     0.488130000000    -0.375736   
O56      O      0.920830000000     0.371060000000     0.489440000000    -0.377578   
O57      O      0.051280000000     0.372990000000     0.485170000000    -0.376735   
O58      O      0.048460000000     0.599730000000     0.480150000000    -0.37042    
O59      O      0.986890000000     0.552660000000     0.597580000000    -0.380986   
O60      O      0.987810000000     0.422430000000     0.599800000000    -0.375332   
O61      O      0.026100000000     0.446190000000     0.525860000000    -0.505547   
O62      O      0.944250000000     0.526180000000     0.525750000000    -0.507347   
O63      O      0.945360000000     0.445220000000     0.527050000000    -0.654029   
O64      O      0.025610000000     0.527360000000     0.524890000000    -0.653229   
O65      O      0.594270000000     0.984650000000     0.413270000000    -0.37521    
O66      O      0.367970000000     0.987170000000     0.426850000000    -0.377434   
O67      O      0.477090000000     0.915060000000     0.374930000000    -0.378091   
O68      O      0.476510000000     0.045520000000     0.369540000000    -0.374582   
O69      O      0.479120000000     0.095870000000     0.415660000000    -0.372898   
O70      O      0.478650000000     0.868910000000     0.425310000000    -0.376392   
O71      O      0.413620000000     0.984590000000     0.376120000000    -0.377194   
O72      O      0.543350000000     0.981240000000     0.367870000000    -0.378933   
O73      O      0.442820000000     0.024260000000     0.445720000000    -0.505418   
O74      O      0.522900000000     0.942610000000     0.444160000000    -0.507681   
O75      O      0.441660000000     0.943310000000     0.448800000000    -0.651366   
O76      O      0.523360000000     0.023870000000     0.440600000000    -0.652125   
O77      O      0.375970000000     0.990140000000     0.556790000000    -0.377498   
O78      O      0.602640000000     0.988770000000     0.543140000000    -0.378001   
O79      O      0.419250000000     0.872570000000     0.496190000000    -0.376338   
O80      O      0.421120000000     0.099380000000     0.486040000000    -0.374405   
O81      O      0.550850000000     0.098160000000     0.475930000000    -0.376247   
O82      O      0.548940000000     0.871290000000     0.482400000000    -0.376943   
O83      O      0.492880000000     0.925030000000     0.601090000000    -0.379578   
O84      O      0.492970000000     0.055340000000     0.595550000000    -0.372904   
O85      O      0.490110000000     0.874640000000     0.554990000000    -0.377791   
O86      O      0.491730000000     0.101590000000     0.545280000000    -0.37371    
O87      O      0.371310000000     0.921290000000     0.496220000000    -0.378417   
O88      O      0.597580000000     0.919100000000     0.477880000000    -0.379115   
O89      O      0.598790000000     0.049460000000     0.476400000000    -0.374018   
O90      O      0.372490000000     0.051570000000     0.490510000000    -0.376275   
O91      O      0.426820000000     0.991570000000     0.602380000000    -0.37708    
O92      O      0.557150000000     0.993050000000     0.593910000000    -0.37434    
O93      O      0.528200000000     0.027070000000     0.521410000000    -0.506063   
O94      O      0.446750000000     0.946880000000     0.529890000000    -0.506934   
O95      O      0.527910000000     0.946070000000     0.524950000000    -0.650176   
O96      O      0.447490000000     0.027860000000     0.526310000000    -0.652141   
O97      O      0.369750000000     0.423490000000     0.981110000000    -0.379206   
O98      O      0.596670000000     0.417240000000     0.978300000000    -0.376492   
O99      O      0.478900000000     0.376050000000     0.913350000000    -0.376686   
O100     O      0.485060000000     0.367340000000     0.043210000000    -0.376329   
O101     O      0.486780000000     0.412920000000     0.094050000000    -0.377058   
O102     O      0.480820000000     0.427030000000     0.867880000000    -0.374877   
O103     O      0.547230000000     0.370110000000     0.975780000000    -0.377992   
O104     O      0.416690000000     0.373890000000     0.977730000000    -0.376994   
O105     O      0.524700000000     0.441070000000     0.022660000000    -0.507775   
O106     O      0.443570000000     0.448420000000     0.942640000000    -0.507823   
O107     O      0.524430000000     0.445970000000     0.941800000000    -0.650613   
O108     O      0.443320000000     0.442960000000     0.023550000000    -0.648654   
O109     O      0.600600000000     0.546980000000     0.989600000000    -0.375405   
O110     O      0.373950000000     0.553320000000     0.992300000000    -0.375117   
O111     O      0.549890000000     0.493510000000     0.871810000000    -0.378673   
O112     O      0.550660000000     0.473580000000     0.097560000000    -0.376011   
O113     O      0.420750000000     0.479480000000     0.098780000000    -0.381045   
O114     O      0.419670000000     0.494500000000     0.872330000000    -0.374084   
O115     O      0.486580000000     0.602740000000     0.927020000000    -0.374688   
O116     O      0.490580000000     0.594120000000     0.057230000000    -0.373408   
O117     O      0.484540000000     0.557160000000     0.876140000000    -0.377997   
O118     O      0.488280000000     0.543010000000     0.102580000000    -0.376789   
O119     O      0.598190000000     0.489670000000     0.919910000000    -0.376241   
O120     O      0.371490000000     0.493620000000     0.920720000000    -0.377019   
O121     O      0.373190000000     0.490650000000     0.050920000000    -0.376669   
O122     O      0.598910000000     0.475300000000     0.049280000000    -0.373846   
O123     O      0.553720000000     0.596690000000     0.990910000000    -0.377127   
O124     O      0.423540000000     0.600210000000     0.995860000000    -0.374766   
O125     O      0.446480000000     0.524050000000     0.028010000000    -0.507108   
O126     O      0.526710000000     0.527040000000     0.946900000000    -0.507881   
O127     O      0.445710000000     0.529440000000     0.947470000000    -0.652304   
O128     O      0.527120000000     0.521940000000     0.027940000000    -0.65171    
Zr1      Zr     0.981630000000     0.982280000000     0.065890000000     1.42485    
Zr2      Zr     0.987060000000     0.904460000000     0.982980000000     1.42727    
Zr3      Zr     0.983180000000     0.065650000000     0.987940000000     1.42027    
Zr4      Zr     0.904480000000     0.983090000000     0.981980000000     1.42035    
Zr5      Zr     0.065620000000     0.986820000000     0.988830000000     1.42683    
Zr6      Zr     0.988390000000     0.987720000000     0.905100000000     1.42703    
Zr7      Zr     0.982860000000     0.483370000000     0.404970000000     1.42803    
Zr8      Zr     0.983850000000     0.565930000000     0.484010000000     1.43109    
Zr9      Zr     0.985590000000     0.404640000000     0.486820000000     1.4244     
Zr10     Zr     0.904020000000     0.484440000000     0.486520000000     1.42803    
Zr11     Zr     0.065160000000     0.486600000000     0.484250000000     1.43042    
Zr12     Zr     0.985800000000     0.486890000000     0.565950000000     1.42755    
Zr13     Zr     0.480390000000     0.981740000000     0.404850000000     1.42436    
Zr14     Zr     0.404640000000     0.986050000000     0.490000000000     1.42454    
Zr15     Zr     0.565580000000     0.984650000000     0.480330000000     1.42534    
Zr16     Zr     0.484420000000     0.904700000000     0.488680000000     1.42115    
Zr17     Zr     0.485710000000     0.065930000000     0.481860000000     1.43484    
Zr18     Zr     0.489990000000     0.988750000000     0.565650000000     1.42371    
Zr19     Zr     0.482910000000     0.404520000000     0.980280000000     1.42131    
Zr20     Zr     0.565740000000     0.482970000000     0.984670000000     1.4276     
Zr21     Zr     0.404740000000     0.487550000000     0.985520000000     1.42419    
Zr22     Zr     0.484830000000     0.490130000000     0.904710000000     1.42804    
Zr23     Zr     0.485570000000     0.479940000000     0.065490000000     1.42769    
Zr24     Zr     0.487690000000     0.565780000000     0.990070000000     1.42789    


