data_structure

_audit_creation_method RASPA-1.0
_audit_creation_date 2023-5-25
_audit_author_name 'Poobodin Mano'

_cell_length_a    33.4391
_cell_length_b    33.4408
_cell_length_c    33.4322
_cell_angle_alpha 90
_cell_angle_beta  90
_cell_angle_gamma 90
_cell_volume      37384.9

_symmetry_cell_setting          triclinic
_symmetry_space_group_name_Hall 'P 1'
_symmetry_space_group_name_H-M  'P 1'
_symmetry_Int_Tables_number     1

_symmetry_equiv_pos_as_xyz 'x,y,z'

loop_
_atom_site_label
_atom_site_type_symbol
_atom_site_fract_x
_atom_site_fract_y
_atom_site_fract_z
_atom_site_charge
C1       C      0.980770000000     0.093690000000     0.081390000000     0.401225   
C2       C      0.979400000000     0.889790000000     0.092910000000     0.400626   
C3       C      0.878920000000     0.996670000000     0.082960000000     0.403198   
C4       C      0.082980000000     0.991260000000     0.090950000000     0.390781   
C5       C      0.982110000000     0.878450000000     0.889050000000     0.394095   
C6       C      0.988750000000     0.082270000000     0.877440000000     0.389287   
C7       C      0.880650000000     0.886010000000     0.989360000000     0.399588   
C8       C      0.084930000000     0.882490000000     0.997220000000     0.389972   
C9       C      0.088500000000     0.086340000000     0.983420000000     0.398925   
C10      C      0.884480000000     0.089540000000     0.973890000000     0.393958   
C11      C      0.886730000000     0.976560000000     0.879760000000     0.391615   
C12      C      0.090640000000     0.977060000000     0.887100000000     0.397839   
C13      C      0.991370000000     0.389700000000     0.377390000000     0.392103   
C14      C      0.990170000000     0.593630000000     0.388120000000     0.393302   
C15      C      0.885800000000     0.488510000000     0.380110000000     0.399316   
C16      C      0.090000000000     0.496160000000     0.385670000000     0.402941   
C17      C      0.982200000000     0.583150000000     0.591870000000     0.400741   
C18      C      0.988940000000     0.379250000000     0.581520000000     0.399728   
C19      C      0.881940000000     0.586900000000     0.489630000000     0.392453   
C20      C      0.086210000000     0.589440000000     0.491870000000     0.403673   
C21      C      0.089330000000     0.385850000000     0.481060000000     0.400665   
C22      C      0.885300000000     0.382970000000     0.474150000000     0.392751   
C23      C      0.880850000000     0.481410000000     0.584170000000     0.399143   
C24      C      0.084850000000     0.485180000000     0.589490000000     0.395823   
C25      C      0.583360000000     0.984530000000     0.378860000000     0.392651   
C26      C      0.379430000000     0.989840000000     0.387320000000     0.398903   
C27      C      0.479520000000     0.887190000000     0.380450000000     0.39222    
C28      C      0.479560000000     0.091410000000     0.385930000000     0.391343   
C29      C      0.387410000000     0.985910000000     0.591410000000     0.389309   
C30      C      0.591360000000     0.984160000000     0.583430000000     0.40329    
C31      C      0.382500000000     0.885440000000     0.485750000000     0.392081   
C32      C      0.384970000000     0.089720000000     0.492920000000     0.390284   
C33      C      0.589250000000     0.087160000000     0.485260000000     0.401903   
C34      C      0.586560000000     0.883430000000     0.477050000000     0.400476   
C35      C      0.488950000000     0.881500000000     0.584550000000     0.398972   
C36      C      0.492820000000     0.085900000000     0.589560000000     0.401628   
C37      C      0.385350000000     0.382390000000     0.990100000000     0.391386   
C38      C      0.381090000000     0.586610000000     0.982430000000     0.398682   
C39      C      0.386280000000     0.484840000000     0.090420000000     0.391525   
C40      C      0.380020000000     0.480770000000     0.886480000000     0.40149    
C41      C      0.585290000000     0.590080000000     0.975970000000     0.393225   
C42      C      0.589320000000     0.386130000000     0.986430000000     0.400047   
C43      C      0.489440000000     0.592250000000     0.083240000000     0.399385   
C44      C      0.476820000000     0.584420000000     0.879330000000     0.392497   
C45      C      0.482460000000     0.380400000000     0.887030000000     0.391326   
C46      C      0.491780000000     0.388240000000     0.091030000000     0.399754   
C47      C      0.590080000000     0.496520000000     0.083760000000     0.396306   
C48      C      0.584290000000     0.479190000000     0.880220000000     0.392131   
C49      C      0.484500000000     0.289980000000     0.143070000000    -0.0276605  
C50      C      0.486580000000     0.192660000000     0.339780000000    -0.0300779  
C51      C      0.467690000000     0.111000000000     0.315640000000    -0.00746361 
C52      C      0.470600000000     0.163220000000     0.370920000000    -0.00758218 
C53      C      0.446380000000     0.233510000000     0.253270000000    -0.0527005  
C54      C      0.524550000000     0.252690000000     0.230520000000    -0.0512701  
C55      C      0.478560000000     0.213340000000     0.270920000000     0.0618725  
C56      C      0.483780000000     0.142960000000     0.287140000000    -0.0301678  
C57      C      0.492350000000     0.272690000000     0.212690000000     0.0642961  
C58      C      0.486460000000     0.342280000000     0.193100000000    -0.0501881  
C59      C      0.453080000000     0.262960000000     0.224370000000    -0.0563168  
C60      C      0.501800000000     0.373440000000     0.162870000000     0.10402    
C61      C      0.500710000000     0.317610000000     0.110550000000    -0.00340437 
C62      C      0.517850000000     0.223230000000     0.259420000000    -0.054996   
C63      C      0.484240000000     0.644030000000     0.182090000000    -0.0293762  
C64      C      0.484940000000     0.841060000000     0.278920000000    -0.029907   
C65      C      0.470320000000     0.816450000000     0.361340000000    -0.00671621 
C66      C      0.469140000000     0.871740000000     0.308940000000    -0.00707365 
C67      C      0.517290000000     0.761570000000     0.247030000000    -0.0556216  
C68      C      0.451850000000     0.724390000000     0.210460000000    -0.0560554  
C69      C      0.478160000000     0.771930000000     0.258680000000     0.0621226  
C70      C      0.486060000000     0.788520000000     0.328730000000    -0.0300251  
C71      C      0.490980000000     0.713830000000     0.198970000000     0.0632854  
C72      C      0.482360000000     0.693990000000     0.129800000000    -0.0508833  
C73      C      0.523500000000     0.732740000000     0.217400000000    -0.0512993  
C74      C      0.497240000000     0.664360000000     0.097910000000     0.104481   
C75      C      0.499710000000     0.611780000000     0.153680000000    -0.000888287
C76      C      0.445650000000     0.753210000000     0.240070000000    -0.0532285  
C77      C      0.479790000000     0.780040000000     0.630880000000    -0.0294816  
C78      C      0.480600000000     0.683050000000     0.827880000000    -0.0296893  
C79      C      0.465990000000     0.599490000000     0.807700000000    -0.00743704 
C80      C      0.464700000000     0.654690000000     0.860000000000    -0.00784315 
C81      C      0.441960000000     0.719050000000     0.739420000000    -0.0530029  
C82      C      0.520060000000     0.740010000000     0.718090000000    -0.0516424  
C83      C      0.474260000000     0.699870000000     0.757930000000     0.0619723  
C84      C      0.481680000000     0.630540000000     0.777950000000    -0.0300118  
C85      C      0.487750000000     0.759310000000     0.699690000000     0.0633037  
C86      C      0.481360000000     0.829520000000     0.683570000000    -0.050893   
C87      C      0.448500000000     0.748550000000     0.710560000000    -0.0560217  
C88      C      0.497160000000     0.862290000000     0.655500000000     0.104248   
C89      C      0.495570000000     0.809550000000     0.599730000000    -0.00076475 
C90      C      0.513520000000     0.710540000000     0.747000000000    -0.0555196  
C91      C      0.488200000000     0.131770000000     0.691410000000    -0.0280229  
C92      C      0.485860000000     0.328770000000     0.788140000000    -0.0295291  
C93      C      0.475990000000     0.308290000000     0.872370000000    -0.00771267 
C94      C      0.470140000000     0.360430000000     0.817070000000    -0.00762855 
C95      C      0.520010000000     0.249450000000     0.758760000000    -0.0551301  
C96      C      0.454480000000     0.209830000000     0.725030000000    -0.0560073  
C97      C      0.481040000000     0.258620000000     0.771830000000     0.0622657  
C98      C      0.491340000000     0.279160000000     0.840590000000    -0.0294595  
C99      C      0.493420000000     0.200940000000     0.711680000000     0.064093   
C100     C      0.482710000000     0.184300000000     0.642080000000    -0.0518616  
C101     C      0.526010000000     0.220840000000     0.728890000000    -0.0512115  
C102     C      0.497940000000     0.157290000000     0.608180000000     0.105147   
C103     C      0.504070000000     0.101760000000     0.660820000000    -0.00397991 
C104     C      0.448480000000     0.238470000000     0.754850000000    -0.0527692  
C105     C      0.639210000000     0.187250000000     0.478940000000    -0.0282057  
C106     C      0.837870000000     0.282080000000     0.476450000000    -0.0301981  
C107     C      0.814450000000     0.365010000000     0.463400000000    -0.0102106  
C108     C      0.868900000000     0.312030000000     0.461120000000    -0.00753625 
C109     C      0.758860000000     0.250510000000     0.509290000000    -0.0550552  
C110     C      0.718390000000     0.217500000000     0.443890000000    -0.055621   
C111     C      0.768170000000     0.263350000000     0.470270000000     0.0627117  
C112     C      0.786180000000     0.332790000000     0.479160000000    -0.0282554  
C113     C      0.709280000000     0.204460000000     0.482890000000     0.064286   
C114     C      0.689330000000     0.135790000000     0.471580000000    -0.051808   
C115     C      0.729690000000     0.221220000000     0.515400000000    -0.0510825  
C116     C      0.661440000000     0.102960000000     0.487440000000     0.105424   
C117     C      0.608200000000     0.157810000000     0.495130000000    -0.00370698 
C118     C      0.747670000000     0.246670000000     0.437780000000    -0.0522827  
C119     C      0.633980000000     0.782230000000     0.482130000000    -0.0298994  
C120     C      0.832150000000     0.686750000000     0.485360000000    -0.0299304  
C121     C      0.810220000000     0.603130000000     0.496610000000    -0.0103652  
C122     C      0.863370000000     0.657420000000     0.501420000000    -0.00778052 
C123     C      0.752900000000     0.716720000000     0.450840000000    -0.0553093  
C124     C      0.712570000000     0.750340000000     0.516010000000    -0.0559618  
C125     C      0.762050000000     0.704010000000     0.489940000000     0.0625315  
C126     C      0.781780000000     0.635000000000     0.480390000000    -0.0281485  
C127     C      0.703520000000     0.763180000000     0.476920000000     0.0636885  
C128     C      0.685680000000     0.832510000000     0.486890000000    -0.0516309  
C129     C      0.723860000000     0.746100000000     0.444530000000    -0.0514812  
C130     C      0.658130000000     0.865740000000     0.471290000000     0.105285   
C131     C      0.603230000000     0.812240000000     0.466450000000    -0.000440672
C132     C      0.741620000000     0.720990000000     0.522310000000    -0.0525334  
C133     C      0.139560000000     0.286250000000     0.487670000000    -0.0296351  
C134     C      0.337270000000     0.190370000000     0.487690000000    -0.029879   
C135     C      0.314100000000     0.107760000000     0.503320000000    -0.00765156 
C136     C      0.368540000000     0.160980000000     0.503500000000    -0.00750808 
C137     C      0.257430000000     0.220770000000     0.455400000000    -0.055458   
C138     C      0.219660000000     0.257200000000     0.520590000000    -0.0562747  
C139     C      0.267850000000     0.209480000000     0.494620000000     0.0619103  
C140     C      0.285510000000     0.139690000000     0.487430000000    -0.0297103  
C141     C      0.209260000000     0.268540000000     0.481370000000     0.0636963  
C142     C      0.190210000000     0.337850000000     0.489750000000    -0.0506418  
C143     C      0.228380000000     0.250110000000     0.448970000000    -0.0516559  
C144     C      0.161240000000     0.370040000000     0.474390000000     0.104461   
C145     C      0.107810000000     0.315020000000     0.471810000000     7.76667e-05
C146     C      0.248750000000     0.227920000000     0.527010000000    -0.0527936  
C147     C      0.134230000000     0.690460000000     0.487370000000    -0.0278331  
C148     C      0.332630000000     0.785280000000     0.490320000000    -0.0299871  
C149     C      0.310870000000     0.869080000000     0.479820000000    -0.00997429 
C150     C      0.364290000000     0.814730000000     0.475460000000    -0.00725271 
C151     C      0.252710000000     0.754640000000     0.522060000000    -0.054873   
C152     C      0.213680000000     0.722590000000     0.455300000000    -0.055535   
C153     C      0.262730000000     0.768140000000     0.483450000000     0.0627123  
C154     C      0.282170000000     0.836890000000     0.494820000000    -0.0282444  
C155     C      0.203820000000     0.708940000000     0.493900000000     0.064906   
C156     C      0.185610000000     0.640000000000     0.481880000000    -0.0501292  
C157     C      0.223490000000     0.725220000000     0.527090000000    -0.0509841  
C158     C      0.157870000000     0.606670000000     0.496860000000     0.104354   
C159     C      0.103280000000     0.660460000000     0.502540000000    -0.00315124 
C160     C      0.242950000000     0.751960000000     0.450270000000    -0.051805   
C161     C      0.839240000000     0.497930000000     0.278310000000    -0.0296388  
C162     C      0.641200000000     0.495850000000     0.182660000000    -0.0295903  
C163     C      0.661610000000     0.507740000000     0.098720000000    -0.00617775 
C164     C      0.609180000000     0.510880000000     0.153710000000    -0.00632392 
C165     C      0.721670000000     0.463650000000     0.211530000000    -0.0551883  
C166     C      0.759720000000     0.529710000000     0.246060000000    -0.0558899  
C167     C      0.711210000000     0.502560000000     0.199270000000     0.0625636  
C168     C      0.691220000000     0.492940000000     0.130290000000    -0.0300966  
C169     C      0.770010000000     0.490810000000     0.258480000000     0.0636301  
C170     C      0.787080000000     0.500390000000     0.328140000000    -0.0516173  
C171     C      0.750840000000     0.457970000000     0.240920000000    -0.0509604  
C172     C      0.814460000000     0.484350000000     0.361300000000     0.105244   
C173     C      0.870160000000     0.482370000000     0.308240000000    -0.000948778
C174     C      0.730540000000     0.535390000000     0.216680000000    -0.0530494  
C175     C      0.141620000000     0.491170000000     0.286950000000    -0.0297711  
C176     C      0.339630000000     0.493400000000     0.191580000000    -0.0299938  
C177     C      0.315850000000     0.474370000000     0.109820000000    -0.00799469 
C178     C      0.371010000000     0.477450000000     0.162340000000    -0.00766768 
C179     C      0.259240000000     0.524370000000     0.221980000000    -0.0553061  
C180     C      0.222810000000     0.459280000000     0.259890000000    -0.0557571  
C181     C      0.270590000000     0.485130000000     0.211710000000     0.0620431  
C182     C      0.287330000000     0.490650000000     0.141580000000    -0.029634   
C183     C      0.211390000000     0.498510000000     0.270150000000     0.0637616  
C184     C      0.191530000000     0.491110000000     0.339340000000    -0.0512274  
C185     C      0.229890000000     0.530860000000     0.251030000000    -0.0518074  
C186     C      0.161770000000     0.506410000000     0.370810000000     0.104839   
C187     C      0.109080000000     0.506610000000     0.315070000000    -0.000260223
C188     C      0.252190000000     0.452800000000     0.230920000000    -0.0525968  
C189     C      0.328980000000     0.485140000000     0.786900000000    -0.0299542  
C190     C      0.131150000000     0.480260000000     0.691240000000    -0.0290069  
C191     C      0.155440000000     0.494170000000     0.608640000000    -0.00968925 
C192     C      0.100050000000     0.494770000000     0.661040000000    -0.00689492 
C193     C      0.210780000000     0.450720000000     0.724180000000    -0.0549506  
C194     C      0.248420000000     0.517740000000     0.757300000000    -0.0553125  
C195     C      0.200180000000     0.489290000000     0.711060000000     0.0633283  
C196     C      0.183600000000     0.479400000000     0.641400000000    -0.0276254  
C197     C      0.258910000000     0.479170000000     0.770510000000     0.0645888  
C198     C      0.279330000000     0.491680000000     0.838950000000    -0.0498598  
C199     C      0.239870000000     0.445850000000     0.753750000000    -0.0510147  
C200     C      0.307710000000     0.476060000000     0.871450000000     0.103182   
C201     C      0.360710000000     0.469940000000     0.816080000000    -0.000853669
C202     C      0.219210000000     0.522620000000     0.727840000000    -0.051875   
C203     C      0.829810000000     0.472840000000     0.684020000000    -0.0294729  
C204     C      0.631300000000     0.479580000000     0.778830000000    -0.0302376  
C205     C      0.654870000000     0.467750000000     0.861970000000    -0.00729459 
C206     C      0.599940000000     0.465890000000     0.809230000000    -0.00734626 
C207     C      0.711440000000     0.509110000000     0.746490000000    -0.0555848  
C208     C      0.748900000000     0.441810000000     0.713740000000    -0.056532   
C209     C      0.700530000000     0.470630000000     0.759680000000     0.0615701  
C210     C      0.683410000000     0.481540000000     0.829060000000    -0.0300447  
C211     C      0.759840000000     0.480290000000     0.700630000000     0.0637071  
C212     C      0.780000000000     0.468440000000     0.632020000000    -0.0514973  
C213     C      0.740840000000     0.513740000000     0.717170000000    -0.0518921  
C214     C      0.808640000000     0.483970000000     0.599670000000     0.105233   
C215     C      0.861940000000     0.487860000000     0.655130000000    -0.00116505 
C216     C      0.719450000000     0.437160000000     0.743050000000    -0.05311    
C217     C      0.830060000000     0.786690000000     0.983660000000    -0.0270388  
C218     C      0.632200000000     0.690940000000     0.980390000000    -0.0316915  
C219     C      0.656190000000     0.608350000000     0.966020000000    -0.00599436 
C220     C      0.601530000000     0.661220000000     0.964030000000    -0.00598372 
C221     C      0.711210000000     0.722110000000     0.014110000000    -0.0531768  
C222     C      0.750610000000     0.757600000000     0.949360000000    -0.0559869  
C223     C      0.701700000000     0.710340000000     0.974800000000     0.0604883  
C224     C      0.684250000000     0.640550000000     0.982270000000    -0.0321065  
C225     C      0.760160000000     0.769370000000     0.988660000000     0.0623658  
C226     C      0.779700000000     0.838500000000     0.979950000000    -0.050519   
C227     C      0.740210000000     0.751440000000     0.020840000000    -0.0491749  
C228     C      0.808580000000     0.870710000000     0.995430000000     0.103049   
C229     C      0.861550000000     0.815490000000     0.999920000000    -0.0058143  
C230     C      0.721590000000     0.728330000000     0.942640000000    -0.0526381  
C231     C      0.690420000000     0.338520000000     0.977380000000    -0.0287874  
C232     C      0.785290000000     0.139900000000     0.976560000000    -0.0320647  
C233     C      0.868800000000     0.160960000000     0.963090000000    -0.00530602 
C234     C      0.814150000000     0.108200000000     0.960630000000    -0.00529123 
C235     C      0.756680000000     0.220130000000     0.009980000000    -0.0533277  
C236     C      0.721310000000     0.259000000000     0.944840000000    -0.05594    
C237     C      0.768200000000     0.209950000000     0.970760000000     0.0605269  
C238     C      0.837400000000     0.190220000000     0.978850000000    -0.0323117  
C239     C      0.709700000000     0.269120000000     0.984060000000     0.0617875  
C240     C      0.640080000000     0.286750000000     0.976000000000    -0.0510464  
C241     C      0.727640000000     0.249490000000     0.016430000000    -0.0492551  
C242     C      0.607400000000     0.314710000000     0.992030000000     0.103294   
C243     C      0.661010000000     0.369770000000     0.993240000000    -0.00323781 
C244     C      0.750340000000     0.229660000000     0.938400000000    -0.0528308  
C245     C      0.330590000000     0.686200000000     0.989540000000    -0.0317354  
C246     C      0.132390000000     0.781810000000     0.993040000000    -0.0359635  
C247     C      0.155750000000     0.864370000000     0.008540000000    -0.00242025 
C248     C      0.101350000000     0.811310000000     0.009250000000    -0.00260116 
C249     C      0.221730000000     0.744140000000     0.030820000000    -0.0510338  
C250     C      0.240930000000     0.722170000000     0.952430000000    -0.0515075  
C251     C      0.202000000000     0.762600000000     0.998810000000     0.05849    
C252     C      0.184200000000     0.832480000000     0.992220000000    -0.0359479  
C253     C      0.260680000000     0.703720000000     0.984450000000     0.061441   
C254     C      0.280220000000     0.634450000000     0.992510000000    -0.0536762  
C255     C      0.250850000000     0.714970000000     0.023850000000    -0.0546191  
C256     C      0.308990000000     0.602310000000     0.976600000000     0.105171   
C257     C      0.362260000000     0.657450000000     0.973340000000    -0.000842617
C258     C      0.211840000000     0.751400000000     0.959400000000    -0.0546819  
C259     C      0.139380000000     0.186460000000     0.976530000000    -0.0291244  
C260     C      0.337080000000     0.281110000000     0.996190000000    -0.0309287  
C261     C      0.314790000000     0.364020000000     0.980700000000    -0.0111106  
C262     C      0.369600000000     0.310740000000     0.983650000000    -0.00902324 
C263     C      0.254960000000     0.249460000000     0.020270000000    -0.0540619  
C264     C      0.222130000000     0.216280000000     0.950780000000    -0.0557957  
C265     C      0.268560000000     0.262250000000     0.982520000000     0.0608516  
C266     C      0.285480000000     0.331590000000     0.993790000000    -0.0294663  
C267     C      0.208610000000     0.203460000000     0.988530000000     0.0620328  
C268     C      0.189640000000     0.134760000000     0.975670000000    -0.0507795  
C269     C      0.225260000000     0.220240000000     0.023100000000    -0.0498509  
C270     C      0.160320000000     0.102330000000     0.989590000000     0.103249   
C271     C      0.106500000000     0.157490000000     0.989600000000    -0.00274482 
C272     C      0.251910000000     0.245450000000     0.947940000000    -0.052745   
C273     C      0.693430000000     0.974460000000     0.629190000000    -0.0272531  
C274     C      0.788310000000     0.977520000000     0.827650000000    -0.0321508  
C275     C      0.872180000000     0.963430000000     0.808490000000    -0.0067009  
C276     C      0.816680000000     0.963120000000     0.860480000000    -0.00711954 
C277     C      0.760520000000     0.008140000000     0.746630000000    -0.0530149  
C278     C      0.725860000000     0.941930000000     0.708960000000    -0.0557518  
C279     C      0.772360000000     0.969250000000     0.757660000000     0.060282   
C280     C      0.841230000000     0.977940000000     0.778110000000    -0.0322711  
C281     C      0.713550000000     0.980800000000     0.698470000000     0.0632407  
C282     C      0.643920000000     0.970580000000     0.681560000000    -0.050329   
C283     C      0.731270000000     0.013710000000     0.717330000000    -0.0495613  
C284     C      0.610540000000     0.986980000000     0.654710000000     0.10345    
C285     C      0.663270000000     0.990660000000     0.598820000000    -0.00597303 
C286     C      0.755000000000     0.936340000000     0.738400000000    -0.051909   
C287     C      0.192250000000     0.983160000000     0.841150000000    -0.031089   
C288     C      0.288840000000     0.978490000000     0.643780000000    -0.0292741  
C289     C      0.372620000000     0.992800000000     0.663440000000    -0.0100145  
C290     C      0.316880000000     0.994290000000     0.611320000000    -0.00953412 
C291     C      0.261640000000     0.946670000000     0.725360000000    -0.0552769  
C292     C      0.224210000000     0.012480000000     0.760990000000    -0.054697   
C293     C      0.272500000000     0.985680000000     0.713770000000     0.0602179  
C294     C      0.341580000000     0.977230000000     0.693250000000    -0.0290524  
C295     C      0.213320000000     0.973470000000     0.772580000000     0.061752   
C296     C      0.143010000000     0.979830000000     0.788180000000    -0.0521582  
C297     C      0.232310000000     0.940760000000     0.754570000000    -0.051294   
C298     C      0.110130000000     0.965120000000     0.816770000000     0.104363   
C299     C      0.162540000000     0.968160000000     0.872530000000    -0.000595234
C300     C      0.253600000000     0.018380000000     0.731870000000    -0.0514674  
C301     C      0.327070000000     0.996390000000     0.288080000000    -0.0315148  
C302     C      0.128740000000     0.988940000000     0.193210000000    -0.0352804  
C303     C      0.153600000000     0.999910000000     0.110310000000    -0.0117603  
C304     C      0.097890000000     0.002790000000     0.162350000000    -0.00221497 
C305     C      0.208520000000     0.959420000000     0.226940000000    -0.0548222  
C306     C      0.246120000000     0.027120000000     0.258700000000    -0.0549231  
C307     C      0.197850000000     0.997710000000     0.213060000000     0.0592903  
C308     C      0.181340000000     0.985730000000     0.143680000000    -0.0289401  
C309     C      0.256970000000     0.988820000000     0.272400000000     0.062327   
C310     C      0.277890000000     0.001780000000     0.340590000000    -0.0459781  
C311     C      0.237850000000     0.955160000000     0.256410000000    -0.0517092  
C312     C      0.307000000000     0.987010000000     0.372900000000     0.100696   
C313     C      0.359530000000     0.981900000000     0.316820000000    -0.000322687
C314     C      0.216770000000     0.031390000000     0.229260000000    -0.0505421  
C315     C      0.826330000000     0.991100000000     0.180870000000    -0.0335091  
C316     C      0.628780000000     0.993130000000     0.277140000000    -0.0321895  
C317     C      0.653430000000     0.973370000000     0.358420000000    -0.00970974 
C318     C      0.597700000000     0.977190000000     0.306720000000    -0.00693377 
C319     C      0.715640000000     0.952530000000     0.236430000000    -0.0516248  
C320     C      0.738200000000     0.030650000000     0.216910000000    -0.0488493  
C321     C      0.697570000000     0.984780000000     0.256120000000     0.061063   
C322     C      0.681660000000     0.989830000000     0.326500000000    -0.0302671  
C323     C      0.756440000000     0.998390000000     0.197390000000     0.0617693  
C324     C      0.776750000000     0.991870000000     0.128080000000    -0.0555107  
C325     C      0.744860000000     0.959130000000     0.207300000000    -0.0547419  
C326     C      0.807030000000     0.007330000000     0.097080000000     0.109244   
C327     C      0.858890000000     0.007390000000     0.153300000000     0.00214037 
C328     C      0.709020000000     0.024050000000     0.246080000000    -0.053433   
C329     C      0.984870000000     0.276590000000     0.626330000000    -0.0303084  
C330     C      0.995110000000     0.180370000000     0.823550000000    -0.0321184  
C331     C      0.982880000000     0.095950000000     0.805160000000    -0.00720143 
C332     C      0.980520000000     0.152450000000     0.856650000000    -0.00665342 
C333     C      0.952550000000     0.212960000000     0.735570000000    -0.0533203  
C334     C      0.029020000000     0.237600000000     0.712360000000    -0.049667   
C335     C      0.986160000000     0.195590000000     0.753520000000     0.0599906  
C336     C      0.997210000000     0.127080000000     0.774800000000    -0.0318852  
C337     C      0.995380000000     0.255260000000     0.694690000000     0.0601545  
C338     C      0.985150000000     0.325250000000     0.679790000000    -0.0520141  
C339     C      0.956970000000     0.242560000000     0.706400000000    -0.0556718  
C340     C      0.998720000000     0.359190000000     0.651970000000     0.103389   
C341     C      0.998510000000     0.307360000000     0.595330000000    -0.00256846 
C342     C      0.024590000000     0.207990000000     0.741540000000    -0.0542215  
C343     C      0.974620000000     0.627520000000     0.694980000000    -0.0290796  
C344     C      0.984620000000     0.824970000000     0.790950000000    -0.0320331  
C345     C      0.972070000000     0.806620000000     0.875300000000    -0.00607091 
C346     C      0.970680000000     0.858150000000     0.819070000000    -0.00570049 
C347     C      0.013300000000     0.743220000000     0.762920000000    -0.0532906  
C348     C      0.945480000000     0.707460000000     0.729360000000    -0.0562015  
C349     C      0.974950000000     0.755060000000     0.775670000000     0.0603299  
C350     C      0.985880000000     0.776010000000     0.844210000000    -0.0321655  
C351     C      0.983810000000     0.696130000000     0.716120000000     0.0622738  
C352     C      0.971990000000     0.680810000000     0.646420000000    -0.0510839  
C353     C      0.017550000000     0.714030000000     0.733320000000    -0.0494603  
C354     C      0.986640000000     0.653950000000     0.612240000000     0.10369    
C355     C      0.988820000000     0.596960000000     0.664010000000    -0.00248122 
C356     C      0.941230000000     0.736740000000     0.758870000000    -0.0525642  
C357     C      0.985930000000     0.845720000000     0.195760000000    -0.0315314  
C358     C      0.987430000000     0.647210000000     0.290390000000    -0.0334573  
C359     C      0.998860000000     0.665770000000     0.374820000000    -0.00903336 
C360     C      0.003020000000     0.614720000000     0.318500000000    -0.00254019 
C361     C      0.025160000000     0.738080000000     0.258720000000    -0.0508721  
C362     C      0.947420000000     0.756750000000     0.234170000000    -0.0517607  
C363     C      0.992710000000     0.717710000000     0.275610000000     0.0590677  
C364     C      0.983370000000     0.695790000000     0.344000000000    -0.0308696  
C365     C      0.979910000000     0.776760000000     0.216910000000     0.0619944  
C366     C      0.989570000000     0.792410000000     0.147120000000    -0.0533848  
C367     C      0.018960000000     0.767400000000     0.229610000000    -0.0547858  
C368     C      0.973960000000     0.818980000000     0.113160000000     0.105098   
C369     C      0.970380000000     0.875730000000     0.164890000000    -0.000494845
C370     C      0.953620000000     0.727480000000     0.263340000000    -0.0546523  
C371     C      0.988710000000     0.196580000000     0.125420000000    -0.0319675  
C372     C      0.987110000000     0.291890000000     0.323780000000    -0.0337276  
C373     C      0.000550000000     0.376050000000     0.305350000000    -0.00146603 
C374     C      0.002550000000     0.319730000000     0.356600000000    -0.00193631 
C375     C      0.026490000000     0.259240000000     0.233910000000    -0.0508794  
C376     C      0.948830000000     0.235970000000     0.213380000000    -0.0515245  
C377     C      0.993840000000     0.276790000000     0.253420000000     0.0588845  
C378     C      0.985140000000     0.345410000000     0.275060000000    -0.0339345  
C379     C      0.981500000000     0.218050000000     0.194240000000     0.0618466  
C380     C      0.990370000000     0.148020000000     0.178860000000    -0.054061   
C381     C      0.020520000000     0.230110000000     0.204540000000    -0.0549202  
C382     C      0.974510000000     0.114320000000     0.152080000000     0.106164   
C383     C      0.973250000000     0.165920000000     0.095110000000    -0.000163975
C384     C      0.954810000000     0.265150000000     0.242710000000    -0.054717   
H1       H      0.924370000000     0.933320000000     0.043670000000     0.216851   
H2       H      0.040570000000     0.045450000000     0.041110000000     0.213317   
H3       H      0.930480000000     0.040380000000     0.922460000000     0.209899   
H4       H      0.042860000000     0.924220000000     0.933410000000     0.212682   
H5       H      0.928680000000     0.545930000000     0.428780000000     0.207217   
H6       H      0.045170000000     0.433280000000     0.425950000000     0.213803   
H7       H      0.927810000000     0.425140000000     0.537670000000     0.20623    
H8       H      0.040300000000     0.541440000000     0.545860000000     0.218586   
H9       H      0.425660000000     0.931640000000     0.429030000000     0.21405    
H10      H      0.541500000000     0.044740000000     0.426790000000     0.207189   
H11      H      0.544510000000     0.927170000000     0.538610000000     0.212368   
H12      H      0.431690000000     0.042850000000     0.546110000000     0.210053   
H13      H      0.428450000000     0.545000000000     0.042290000000     0.20681    
H14      H      0.427610000000     0.426400000000     0.932080000000     0.215178   
H15      H      0.545470000000     0.432730000000     0.042880000000     0.217091   
H16      H      0.539630000000     0.542240000000     0.923470000000     0.20767    
H17      H      0.543230000000     0.208080000000     0.272590000000     0.0422712  
H18      H      0.493910000000     0.258840000000     0.135910000000     0.0406959  
H19      H      0.497070000000     0.350290000000     0.223660000000     0.0552668  
H20      H      0.434810000000     0.108440000000     0.311320000000     0.0391917  
H21      H      0.533120000000     0.311520000000     0.106640000000     0.0653354  
H22      H      0.477250000000     0.223370000000     0.348640000000     0.0364202  
H23      H      0.472350000000     0.136440000000     0.256550000000     0.03574    
H24      H      0.486040000000     0.169270000000     0.399750000000     0.0406225  
H25      H      0.484700000000     0.401410000000     0.168840000000     0.0309651  
H26      H      0.554900000000     0.259820000000     0.221760000000     0.052889   
H27      H      0.485630000000     0.309810000000     0.081950000000     0.0476108  
H28      H      0.416020000000     0.226190000000     0.261820000000     0.0453954  
H29      H      0.451210000000     0.291050000000     0.142820000000     0.0372867  
H30      H      0.481180000000     0.081820000000     0.307170000000     0.0392325  
H31      H      0.519880000000     0.191540000000     0.339710000000     0.0377344  
H32      H      0.517040000000     0.141220000000     0.286360000000     0.0374808  
H33      H      0.427670000000     0.277870000000     0.210980000000     0.0417098  
H34      H      0.453160000000     0.343370000000     0.193620000000     0.0411782  
H35      H      0.438190000000     0.169110000000     0.375520000000     0.0396591  
H36      H      0.601270000000     0.357710000000     0.169150000000     0.143661   
H37      H      0.415400000000     0.760870000000     0.248760000000     0.0456163  
H38      H      0.495340000000     0.637120000000     0.212720000000     0.0369578  
H39      H      0.491510000000     0.724910000000     0.121360000000     0.0552302  
H40      H      0.437800000000     0.810800000000     0.365450000000     0.0378032  
H41      H      0.532330000000     0.607780000000     0.158670000000     0.0522988  
H42      H      0.474090000000     0.849510000000     0.248600000000     0.0359002  
H43      H      0.476060000000     0.757540000000     0.335750000000     0.0357054  
H44      H      0.483540000000     0.900990000000     0.302370000000     0.0404949  
H45      H      0.478710000000     0.669720000000     0.070720000000     0.0295634  
H46      H      0.426200000000     0.710190000000     0.196770000000     0.0408769  
H47      H      0.484990000000     0.583100000000     0.161840000000     0.0385524  
H48      H      0.542920000000     0.775590000000     0.260960000000     0.0430891  
H49      H      0.450940000000     0.643000000000     0.182710000000     0.0356718  
H50      H      0.485490000000     0.808620000000     0.389890000000     0.0407614  
H51      H      0.518240000000     0.842080000000     0.278660000000     0.0391547  
H52      H      0.519370000000     0.788950000000     0.329030000000     0.0396386  
H53      H      0.553750000000     0.724870000000     0.208900000000     0.0516785  
H54      H      0.449050000000     0.693370000000     0.130260000000     0.0400027  
H55      H      0.436430000000     0.875440000000     0.304220000000     0.0389902  
H56      H      0.597680000000     0.668280000000     0.106800000000     0.143634   
H57      H      0.539000000000     0.696310000000     0.760980000000     0.0417832  
H58      H      0.489400000000     0.749410000000     0.622060000000     0.0363716  
H59      H      0.491350000000     0.835820000000     0.714760000000     0.0561124  
H60      H      0.433400000000     0.595310000000     0.802570000000     0.0403695  
H61      H      0.527710000000     0.803150000000     0.594180000000     0.0495878  
H62      H      0.469720000000     0.713770000000     0.834750000000     0.036443   
H63      H      0.471520000000     0.621930000000     0.747430000000     0.035393   
H64      H      0.478650000000     0.663090000000     0.888990000000     0.0411509  
H65      H      0.480060000000     0.889960000000     0.662770000000     0.0322034  
H66      H      0.550400000000     0.748060000000     0.710110000000     0.0510154  
H67      H      0.479450000000     0.803910000000     0.571180000000     0.0382374  
H68      H      0.411620000000     0.711250000000     0.747640000000     0.0460772  
H69      H      0.446480000000     0.780820000000     0.630780000000     0.0365686  
H70      H      0.480930000000     0.570480000000     0.801300000000     0.0388547  
H71      H      0.513900000000     0.683350000000     0.828980000000     0.0376672  
H72      H      0.514980000000     0.630160000000     0.778280000000     0.0369165  
H73      H      0.423000000000     0.763080000000     0.696910000000     0.0415215  
H74      H      0.448050000000     0.830490000000     0.683570000000     0.0416383  
H75      H      0.431890000000     0.659280000000     0.863000000000     0.0425014  
H76      H      0.597500000000     0.851690000000     0.652640000000     0.141636   
H77      H      0.418350000000     0.245270000000     0.764590000000     0.0463238  
H78      H      0.500450000000     0.123690000000     0.721310000000     0.0413478  
H79      H      0.490060000000     0.216070000000     0.635190000000     0.0562197  
H80      H      0.443990000000     0.301590000000     0.878460000000     0.0395631  
H81      H      0.536900000000     0.099070000000     0.664840000000     0.0686045  
H82      H      0.473390000000     0.335110000000     0.757920000000     0.0360882  
H83      H      0.482900000000     0.248280000000     0.849720000000     0.0365179  
H84      H      0.483020000000     0.389780000000     0.808210000000     0.0403476  
H85      H      0.478390000000     0.163260000000     0.581850000000     0.029506   
H86      H      0.428800000000     0.194870000000     0.712220000000     0.0414998  
H87      H      0.490820000000     0.072040000000     0.667660000000     0.0488388  
H88      H      0.545670000000     0.264620000000     0.771370000000     0.042393   
H89      H      0.454990000000     0.129450000000     0.692890000000     0.0362287  
H90      H      0.492870000000     0.302820000000     0.900500000000     0.0420437  
H91      H      0.519050000000     0.331070000000     0.786340000000     0.0381212  
H92      H      0.524590000000     0.280850000000     0.839280000000     0.0383734  
H93      H      0.556110000000     0.214300000000     0.718890000000     0.0522925  
H94      H      0.449490000000     0.182030000000     0.643540000000     0.0406094  
H95      H      0.437130000000     0.362590000000     0.813640000000     0.0403328  
H96      H      0.598880000000     0.159090000000     0.608910000000     0.149661   
H97      H      0.754390000000     0.256430000000     0.407630000000     0.0471008  
H98      H      0.632730000000     0.217300000000     0.491750000000     0.0411787  
H99      H      0.721020000000     0.127520000000     0.477810000000     0.0569415  
H100     H      0.808960000000     0.368720000000     0.430860000000     0.0558344  
H101     H      0.605950000000     0.161860000000     0.528020000000     0.0679579  
H102     H      0.845680000000     0.251930000000     0.464700000000     0.0359744  
H103     H      0.755200000000     0.340520000000     0.469710000000     0.0406975  
H104     H      0.898200000000     0.304630000000     0.475000000000     0.0390269  
H105     H      0.665720000000     0.076480000000     0.467660000000     0.0309357  
H106     H      0.702940000000     0.205130000000     0.418280000000     0.0419833  
H107     H      0.578620000000     0.165800000000     0.482200000000     0.046464   
H108     H      0.774050000000     0.263150000000     0.534930000000     0.0419963  
H109     H      0.636240000000     0.189320000000     0.445810000000     0.0362533  
H110     H      0.806870000000     0.393730000000     0.478340000000     0.0511298  
H111     H      0.839290000000     0.280960000000     0.509710000000     0.0369528  
H112     H      0.787140000000     0.332550000000     0.512470000000     0.0380174  
H113     H      0.722890000000     0.211520000000     0.545550000000     0.0521344  
H114     H      0.686020000000     0.137670000000     0.438460000000     0.0410273  
H115     H      0.872140000000     0.308130000000     0.428240000000     0.0405335  
H116     H      0.666140000000     0.103210000000     0.588300000000     0.150523   
H117     H      0.748360000000     0.711470000000     0.552530000000     0.0464609  
H118     H      0.626330000000     0.752160000000     0.470050000000     0.0369606  
H119     H      0.717330000000     0.839840000000     0.479410000000     0.0564736  
H120     H      0.803480000000     0.598560000000     0.528790000000     0.0558506  
H121     H      0.599580000000     0.807730000000     0.433710000000     0.0518394  
H122     H      0.838910000000     0.716970000000     0.497570000000     0.0364146  
H123     H      0.750670000000     0.626490000000     0.488700000000     0.0401191  
H124     H      0.892860000000     0.665550000000     0.488380000000     0.0409086  
H125     H      0.663930000000     0.892480000000     0.490310000000     0.0312154  
H126     H      0.697360000000     0.763110000000     0.541560000000     0.0420543  
H127     H      0.573940000000     0.805200000000     0.480540000000     0.038416   
H128     H      0.768260000000     0.704030000000     0.425320000000     0.0419713  
H129     H      0.631930000000     0.780810000000     0.515350000000     0.0372541  
H130     H      0.804040000000     0.574550000000     0.480770000000     0.050742   
H131     H      0.834520000000     0.688220000000     0.452150000000     0.0373134  
H132     H      0.783810000000     0.635750000000     0.447140000000     0.0376434  
H133     H      0.717240000000     0.755750000000     0.414320000000     0.0514192  
H134     H      0.683460000000     0.831400000000     0.520130000000     0.0416915  
H135     H      0.865640000000     0.661260000000     0.534390000000     0.0412178  
H136     H      0.660150000000     0.862090000000     0.370420000000     0.14311    
H137     H      0.256430000000     0.219450000000     0.557320000000     0.0453836  
H138     H      0.132350000000     0.255670000000     0.476650000000     0.036664   
H139     H      0.221350000000     0.345800000000     0.480920000000     0.0564447  
H140     H      0.308920000000     0.104060000000     0.535980000000     0.0372893  
H141     H      0.103870000000     0.309810000000     0.439210000000     0.0495105  
H142     H      0.345300000000     0.220900000000     0.498260000000     0.0364639  
H143     H      0.254740000000     0.132270000000     0.497760000000     0.035876   
H144     H      0.397610000000     0.167950000000     0.488920000000     0.0416331  
H145     H      0.166820000000     0.397230000000     0.492850000000     0.0341401  
H146     H      0.205280000000     0.270900000000     0.546140000000     0.0422661  
H147     H      0.078930000000     0.307490000000     0.486490000000     0.0394711  
H148     H      0.271680000000     0.206900000000     0.429860000000     0.0420489  
H149     H      0.138300000000     0.285790000000     0.520970000000     0.0384422  
H150     H      0.306510000000     0.078890000000     0.488660000000     0.0422903  
H151     H      0.338090000000     0.190370000000     0.454380000000     0.0384814  
H152     H      0.285710000000     0.139050000000     0.454120000000     0.0385576  
H153     H      0.220620000000     0.258520000000     0.418660000000     0.0511456  
H154     H      0.189200000000     0.337540000000     0.523060000000     0.0428676  
H155     H      0.372300000000     0.165950000000     0.536180000000     0.0375637  
H156     H      0.166020000000     0.360610000000     0.374020000000     0.142046   
H157     H      0.250340000000     0.762140000000     0.420420000000     0.0469343  
H158     H      0.126740000000     0.720410000000     0.499840000000     0.0408433  
H159     H      0.217220000000     0.632360000000     0.489210000000     0.0611824  
H160     H      0.304480000000     0.874710000000     0.447730000000     0.053841   
H161     H      0.099870000000     0.664510000000     0.535330000000     0.0651031  
H162     H      0.339700000000     0.755190000000     0.477930000000     0.036273   
H163     H      0.251240000000     0.845500000000     0.486010000000     0.0398904  
H164     H      0.393310000000     0.806740000000     0.489610000000     0.0398801  
H165     H      0.163370000000     0.580260000000     0.477330000000     0.0477675  
H166     H      0.198910000000     0.710460000000     0.429190000000     0.0433157  
H167     H      0.074000000000     0.667820000000     0.488600000000     0.0480937  
H168     H      0.267520000000     0.766730000000     0.548170000000     0.0425488  
H169     H      0.132380000000     0.692370000000     0.454150000000     0.0378161  
H170     H      0.304640000000     0.897210000000     0.496450000000     0.0487419  
H171     H      0.334100000000     0.783400000000     0.523550000000     0.0380069  
H172     H      0.283480000000     0.835530000000     0.528090000000     0.0383839  
H173     H      0.216180000000     0.714940000000     0.556930000000     0.0526497  
H174     H      0.183410000000     0.641780000000     0.448660000000     0.0501176  
H175     H      0.367860000000     0.810930000000     0.442610000000     0.0382517  
H176     H      0.158810000000     0.606880000000     0.597830000000     0.143133   
H177     H      0.722770000000     0.565470000000     0.207550000000     0.0462114  
H178     H      0.847450000000     0.486760000000     0.248030000000     0.0360254  
H179     H      0.755440000000     0.492320000000     0.334930000000     0.0570562  
H180     H      0.666810000000     0.540190000000     0.093580000000     0.0404147  
H181     H      0.875220000000     0.450010000000     0.302550000000     0.0512428  
H182     H      0.634310000000     0.507740000000     0.213000000000     0.0397097  
H183     H      0.721790000000     0.502700000000     0.121400000000     0.0354196  
H184     H      0.580110000000     0.497340000000     0.162470000000     0.052363   
H185     H      0.808280000000     0.502610000000     0.388480000000     0.0303611  
H186     H      0.774030000000     0.555580000000     0.259230000000     0.0412913  
H187     H      0.898960000000     0.497880000000     0.302240000000     0.036884   
H188     H      0.707160000000     0.437780000000     0.198580000000     0.0443265  
H189     H      0.840380000000     0.531220000000     0.277620000000     0.0351308  
H190     H      0.668090000000     0.491920000000     0.070190000000     0.0404412  
H191     H      0.639990000000     0.462580000000     0.184040000000     0.0476931  
H192     H      0.690760000000     0.459640000000     0.130990000000     0.040102   
H193     H      0.758400000000     0.427910000000     0.250270000000     0.0522811  
H194     H      0.788830000000     0.533660000000     0.327770000000     0.0408298  
H195     H      0.606270000000     0.543830000000     0.157200000000     0.0424607  
H196     H      0.813940000000     0.383610000000     0.355230000000     0.143218   
H197     H      0.260550000000     0.422480000000     0.223210000000     0.0457804  
H198     H      0.134580000000     0.501610000000     0.256120000000     0.0360719  
H199     H      0.222390000000     0.500690000000     0.347550000000     0.0605411  
H200     H      0.311290000000     0.441530000000     0.107180000000     0.0405504  
H201     H      0.104520000000     0.539040000000     0.309430000000     0.0518026  
H202     H      0.348280000000     0.484090000000     0.222360000000     0.0366298  
H203     H      0.256710000000     0.479390000000     0.134900000000     0.0359573  
H204     H      0.399680000000     0.493210000000     0.168280000000     0.0402955  
H205     H      0.167620000000     0.488980000000     0.398570000000     0.045103   
H206     H      0.208910000000     0.433750000000     0.274120000000     0.0427144  
H207     H      0.080660000000     0.491250000000     0.307210000000     0.0380942  
H208     H      0.272880000000     0.549860000000     0.207440000000     0.0415526  
H209     H      0.141130000000     0.457850000000     0.286910000000     0.0371067  
H210     H      0.307620000000     0.487970000000     0.080610000000     0.0419873  
H211     H      0.339540000000     0.526690000000     0.190460000000     0.0371336  
H212     H      0.286740000000     0.523910000000     0.139860000000     0.0372795  
H213     H      0.221340000000     0.561170000000     0.258570000000     0.0507097  
H214     H      0.191190000000     0.457790000000     0.339660000000     0.0500656  
H215     H      0.375920000000     0.445150000000     0.168530000000     0.0400401  
H216     H      0.154080000000     0.607070000000     0.366990000000     0.142949   
H217     H      0.211470000000     0.552440000000     0.717840000000     0.0479267  
H218     H      0.335400000000     0.472280000000     0.756860000000     0.0367657  
H219     H      0.247780000000     0.485120000000     0.847480000000     0.0621666  
H220     H      0.160510000000     0.526700000000     0.604240000000     0.0558967  
H221     H      0.364170000000     0.437120000000     0.811980000000     0.0477949  
H222     H      0.122510000000     0.491420000000     0.721400000000     0.0396968  
H223     H      0.214400000000     0.489790000000     0.634180000000     0.0406095  
H224     H      0.071220000000     0.479610000000     0.667670000000     0.0539129  
H225     H      0.303110000000     0.495190000000     0.898280000000     0.0485732  
H226     H      0.262870000000     0.543930000000     0.769650000000     0.0433455  
H227     H      0.389740000000     0.483890000000     0.807790000000     0.0389541  
H228     H      0.196720000000     0.424480000000     0.711480000000     0.0440575  
H229     H      0.331100000000     0.518310000000     0.784550000000     0.0376349  
H230     H      0.163460000000     0.478770000000     0.580260000000     0.0514186  
H231     H      0.130910000000     0.446950000000     0.692050000000     0.0474     
H232     H      0.183710000000     0.446090000000     0.641730000000     0.0401701  
H233     H      0.247800000000     0.416020000000     0.763560000000     0.052269   
H234     H      0.282280000000     0.524820000000     0.837010000000     0.048938   
H235     H      0.095310000000     0.527390000000     0.665450000000     0.0418257  
H236     H      0.255760000000     0.401580000000     0.914840000000     0.142793   
H237     H      0.711440000000     0.407400000000     0.753010000000     0.0449575  
H238     H      0.836560000000     0.484880000000     0.714330000000     0.0359645  
H239     H      0.748600000000     0.475850000000     0.623660000000     0.0565759  
H240     H      0.659650000000     0.435280000000     0.867350000000     0.0388119  
H241     H      0.866710000000     0.520340000000     0.660390000000     0.0512554  
H242     H      0.622850000000     0.467600000000     0.748930000000     0.0358192  
H243     H      0.714090000000     0.471160000000     0.836800000000     0.0343317  
H244     H      0.571140000000     0.480800000000     0.801870000000     0.0386892  
H245     H      0.804050000000     0.464880000000     0.572740000000     0.0300632  
H246     H      0.763180000000     0.415500000000     0.701450000000     0.0410574  
H247     H      0.890490000000     0.472550000000     0.662670000000     0.0380538  
H248     H      0.697400000000     0.535460000000     0.758960000000     0.0414696  
H249     H      0.831130000000     0.439590000000     0.685690000000     0.035024   
H250     H      0.662910000000     0.483790000000     0.889970000000     0.0385269  
H251     H      0.631050000000     0.512840000000     0.777110000000     0.0370442  
H252     H      0.683700000000     0.514840000000     0.828020000000     0.0366751  
H253     H      0.749010000000     0.543510000000     0.707350000000     0.0511051  
H254     H      0.782170000000     0.435210000000     0.633440000000     0.040575   
H255     H      0.595370000000     0.433130000000     0.805830000000     0.0393283  
H256     H      0.805860000000     0.584760000000     0.603390000000     0.142702   
H257     H      0.714620000000     0.719480000000     0.912270000000     0.0450516  
H258     H      0.836890000000     0.756190000000     0.995160000000     0.0392725  
H259     H      0.748450000000     0.846720000000     0.988130000000     0.0557897  
H260     H      0.662000000000     0.604530000000     0.933480000000     0.0359632  
H261     H      0.864260000000     0.810860000000     0.032700000000     0.0674861  
H262     H      0.624250000000     0.721340000000     0.969390000000     0.039937   
H263     H      0.715280000000     0.633220000000     0.972680000000     0.0350593  
H264     H      0.571980000000     0.668270000000     0.977510000000     0.0525474  
H265     H      0.803440000000     0.897690000000     0.976550000000     0.0320942  
H266     H      0.765620000000     0.770940000000     0.923980000000     0.0414585  
H267     H      0.890840000000     0.807480000000     0.986350000000     0.0466873  
H268     H      0.696350000000     0.708570000000     0.039480000000     0.0438043  
H269     H      0.832050000000     0.785870000000     0.950400000000     0.036475   
H270     H      0.663680000000     0.579610000000     0.980980000000     0.0394877  
H271     H      0.630590000000     0.691170000000     0.013670000000     0.0499472  
H272     H      0.683310000000     0.640190000000     0.015580000000     0.0412209  
H273     H      0.747300000000     0.760200000000     0.051210000000     0.0527008  
H274     H      0.781310000000     0.837790000000     0.946670000000     0.0414659  
H275     H      0.598830000000     0.665710000000     0.931190000000     0.0369811  
H276     H      0.802080000000     0.862610000000     0.095840000000     0.142835   
H277     H      0.758920000000     0.222110000000     0.908090000000     0.0451248  
H278     H      0.720930000000     0.346510000000     0.988080000000     0.035243   
H279     H      0.633050000000     0.255320000000     0.984610000000     0.0563809  
H280     H      0.873130000000     0.166430000000     0.930560000000     0.0357614  
H281     H      0.666900000000     0.374580000000     0.025600000000     0.0521334  
H282     H      0.754770000000     0.132940000000     0.965220000000     0.040564   
H283     H      0.845900000000     0.220930000000     0.969200000000     0.0350941  
H284     H      0.805870000000     0.078900000000     0.973940000000     0.0536115  
H285     H      0.580030000000     0.308530000000     0.974040000000     0.0312127  
H286     H      0.707820000000     0.273600000000     0.919310000000     0.0411629  
H287     H      0.667290000000     0.398550000000     0.977810000000     0.0380939  
H288     H      0.770020000000     0.205330000000     0.035490000000     0.0446744  
H289     H      0.690600000000     0.339570000000     0.944080000000     0.0356356  
H290     H      0.897630000000     0.167570000000     0.978290000000     0.040518   
H291     H      0.784590000000     0.138400000000     0.009840000000     0.0521688  
H292     H      0.837400000000     0.189440000000     0.012160000000     0.0431322  
H293     H      0.718900000000     0.256890000000     0.046730000000     0.0524053  
H294     H      0.639980000000     0.288030000000     0.942690000000     0.0415954  
H295     H      0.810060000000     0.105690000000     0.927710000000     0.0373226  
H296     H      0.613620000000     0.315820000000     0.092800000000     0.149963   
H297     H      0.197150000000     0.765290000000     0.934130000000     0.0425457  
H298     H      0.337550000000     0.716770000000     0.978310000000     0.036808   
H299     H      0.248910000000     0.626420000000     0.984360000000     0.0566928  
H300     H      0.161070000000     0.867690000000     0.041210000000     0.0386976  
H301     H      0.365850000000     0.662710000000     0.940710000000     0.0521962  
H302     H      0.124450000000     0.751310000000     0.003750000000     0.0389511  
H303     H      0.215080000000     0.839870000000     0.002240000000     0.0383562  
H304     H      0.072020000000     0.804240000000     0.995280000000     0.0395036  
H305     H      0.303770000000     0.575040000000     0.995020000000     0.0301868  
H306     H      0.248200000000     0.713870000000     0.921980000000     0.0512404  
H307     H      0.391280000000     0.665060000000     0.987680000000     0.038119   
H308     H      0.214550000000     0.752530000000     0.061270000000     0.0447063  
H309     H      0.332350000000     0.686820000000     0.022810000000     0.0370838  
H310     H      0.163390000000     0.893360000000     0.994160000000     0.0394547  
H311     H      0.131110000000     0.781780000000     0.959750000000     0.0398671  
H312     H      0.183640000000     0.833250000000     0.958910000000     0.040289   
H313     H      0.265700000000     0.701290000000     0.049150000000     0.0406442  
H314     H      0.281890000000     0.634780000000     0.025800000000     0.0419813  
H315     H      0.098220000000     0.806550000000     0.042020000000     0.0388214  
H316     H      0.310180000000     0.605750000000     0.875660000000     0.143082   
H317     H      0.261990000000     0.255140000000     0.918730000000     0.0475504  
H318     H      0.131700000000     0.216790000000     0.987910000000     0.0356891  
H319     H      0.220590000000     0.126650000000     0.985070000000     0.0554184  
H320     H      0.311210000000     0.368970000000     0.948050000000     0.0543539  
H321     H      0.099440000000     0.163060000000     0.021630000000     0.0499414  
H322     H      0.345950000000     0.250780000000     0.985720000000     0.0364474  
H323     H      0.255400000000     0.339210000000     0.981680000000     0.0362926  
H324     H      0.396970000000     0.304310000000     0.001430000000     0.0429258  
H325     H      0.166200000000     0.075340000000     0.970940000000     0.030589   
H326     H      0.209670000000     0.203800000000     0.923640000000     0.0416068  
H327     H      0.079020000000     0.164600000000     0.972250000000     0.0382005  
H328     H      0.267210000000     0.262130000000     0.047420000000     0.041845   
H329     H      0.140240000000     0.187920000000     0.943240000000     0.0360684  
H330     H      0.306600000000     0.392330000000     0.996110000000     0.0470268  
H331     H      0.335110000000     0.280400000000     0.029440000000     0.0390456  
H332     H      0.283460000000     0.331240000000     0.027050000000     0.0389994  
H333     H      0.215060000000     0.210650000000     0.052310000000     0.0510234  
H334     H      0.189540000000     0.135970000000     0.942360000000     0.0410498  
H335     H      0.377110000000     0.305490000000     0.951670000000     0.0410126  
H336     H      0.157060000000     0.106680000000     0.090370000000     0.141508   
H337     H      0.763910000000     0.906280000000     0.746510000000     0.0456462  
H338     H      0.723620000000     0.985930000000     0.621070000000     0.0406203  
H339     H      0.637270000000     0.977890000000     0.713410000000     0.0597837  
H340     H      0.876660000000     0.930730000000     0.804400000000     0.0391165  
H341     H      0.668650000000     0.023190000000     0.595000000000     0.069734   
H342     H      0.757730000000     0.966320000000     0.834590000000     0.0375856  
H343     H      0.850250000000     0.967090000000     0.747950000000     0.0360421  
H344     H      0.807940000000     0.977910000000     0.888950000000     0.0417342  
H345     H      0.583540000000     0.968430000000     0.660670000000     0.0446698  
H346     H      0.712660000000     0.916030000000     0.694730000000     0.0425184  
H347     H      0.669240000000     0.976180000000     0.569480000000     0.048545   
H348     H      0.773580000000     0.034080000000     0.760910000000     0.042199   
H349     H      0.694230000000     0.941210000000     0.627380000000     0.0368568  
H350     H      0.901090000000     0.978430000000     0.801780000000     0.0396075  
H351     H      0.787460000000     0.010820000000     0.827850000000     0.0398156  
H352     H      0.841170000000     0.011250000000     0.777560000000     0.0390906  
H353     H      0.722080000000     0.043760000000     0.709490000000     0.0526365  
H354     H      0.644510000000     0.937350000000     0.679060000000     0.0474646  
H355     H      0.812530000000     0.930370000000     0.864540000000     0.0399219  
H356     H      0.614760000000     0.087800000000     0.656530000000     0.150703   
H357     H      0.261510000000     0.048540000000     0.723120000000     0.0450003  
H358     H      0.222840000000     0.973830000000     0.850410000000     0.0371546  
H359     H      0.136800000000     0.968500000000     0.757450000000     0.0550342  
H360     H      0.377660000000     0.025170000000     0.669200000000     0.0395124  
H361     H      0.168490000000     0.935990000000     0.878420000000     0.049839   
H362     H      0.258040000000     0.989280000000     0.637120000000     0.0355562  
H363     H      0.350430000000     0.987160000000     0.723780000000     0.0357316  
H364     H      0.308720000000     0.979640000000     0.582590000000     0.0417286  
H365     H      0.082530000000     0.981870000000     0.808500000000     0.0306679  
H366     H      0.209840000000     0.038270000000     0.774240000000     0.0410767  
H367     H      0.168340000000     0.984590000000     0.900870000000     0.039729   
H368     H      0.275610000000     0.920890000000     0.711670000000     0.042179   
H369     H      0.191400000000     0.016450000000     0.840360000000     0.0383264  
H370     H      0.401360000000     0.977090000000     0.669220000000     0.0429981  
H371     H      0.288540000000     0.945190000000     0.642850000000     0.0385445  
H372     H      0.341680000000     0.943920000000     0.692790000000     0.0381189  
H373     H      0.224090000000     0.910600000000     0.763040000000     0.0518141  
H374     H      0.141970000000     0.013110000000     0.786820000000     0.0426733  
H375     H      0.311680000000     0.026940000000     0.607660000000     0.0388393  
H376     H      0.126770000000     0.865650000000     0.814000000000     0.14302    
H377     H      0.208930000000     0.061000000000     0.218750000000     0.0458292  
H378     H      0.333450000000     0.983790000000     0.257910000000     0.0365527  
H379     H      0.246620000000     0.994430000000     0.349510000000     0.0538433  
H380     H      0.159210000000     0.032200000000     0.105080000000     0.054819   
H381     H      0.364130000000     0.949290000000     0.312210000000     0.0485883  
H382     H      0.120110000000     0.001230000000     0.222930000000     0.0387266  
H383     H      0.212350000000     0.995360000000     0.136280000000     0.0391266  
H384     H      0.068960000000     0.987890000000     0.169200000000     0.0397994  
H385     H      0.302780000000     0.006720000000     0.399440000000     0.0324973  
H386     H      0.260490000000     0.053580000000     0.270550000000     0.041493   
H387     H      0.388010000000     0.996970000000     0.308550000000     0.0374882  
H388     H      0.194440000000     0.932930000000     0.214810000000     0.0417577  
H389     H      0.328400000000     0.029610000000     0.285800000000     0.0375687  
H390     H      0.161580000000     0.983600000000     0.082450000000     0.04975    
H391     H      0.128110000000     0.955690000000     0.195200000000     0.039042   
H392     H      0.180880000000     0.952440000000     0.145050000000     0.0382677  
H393     H      0.245950000000     0.925530000000     0.266660000000     0.0512389  
H394     H      0.279920000000     0.034970000000     0.338500000000     0.0403977  
H395     H      0.093280000000     0.035540000000     0.165830000000     0.0383731  
H396     H      0.304330000000     0.886140000000     0.371620000000     0.142054   
H397     H      0.695630000000     0.049470000000     0.260970000000     0.0423388  
H398     H      0.833090000000     0.000970000000     0.211950000000     0.0434563  
H399     H      0.746130000000     0.001990000000     0.119680000000     0.0613464  
H400     H      0.657630000000     0.940470000000     0.360210000000     0.0559691  
H401     H      0.862180000000     0.039940000000     0.158930000000     0.0666972  
H402     H      0.619690000000     0.984000000000     0.246430000000     0.0365342  
H403     H      0.712310000000     0.978400000000     0.332750000000     0.0410843  
H404     H      0.569020000000     0.993090000000     0.301190000000     0.0385647  
H405     H      0.801320000000     0.990140000000     0.069140000000     0.0425534  
H406     H      0.746910000000     0.060990000000     0.209640000000     0.0526925  
H407     H      0.887640000000     0.992880000000     0.161560000000     0.045893   
H408     H      0.707210000000     0.922180000000     0.243950000000     0.047433   
H409     H      0.826980000000     0.957800000000     0.180200000000     0.0404773  
H410     H      0.662210000000     0.986290000000     0.387780000000     0.0506229  
H411     H      0.629030000000     0.026420000000     0.278400000000     0.0388045  
H412     H      0.682380000000     0.023080000000     0.328500000000     0.039638   
H413     H      0.758600000000     0.933680000000     0.192770000000     0.0438573  
H414     H      0.776710000000     0.958560000000     0.127310000000     0.0517035  
H415     H      0.592600000000     0.944930000000     0.300480000000     0.0407703  
H416     H      0.799260000000     0.106760000000     0.112450000000     0.143929   
H417     H      0.051040000000     0.195140000000     0.755060000000     0.0416954  
H418     H      0.995790000000     0.246620000000     0.616800000000     0.0358986  
H419     H      0.995500000000     0.331560000000     0.710850000000     0.054383   
H420     H      0.950740000000     0.089530000000     0.799520000000     0.0377329  
H421     H      0.030790000000     0.302610000000     0.588960000000     0.0530761  
H422     H      0.983650000000     0.210980000000     0.829940000000     0.0352299  
H423     H      0.987240000000     0.117560000000     0.744490000000     0.0357732  
H424     H      0.995720000000     0.161160000000     0.884930000000     0.0388824  
H425     H      0.980430000000     0.385840000000     0.660070000000     0.0291939  
H426     H      0.058730000000     0.247170000000     0.703740000000     0.0508185  
H427     H      0.982010000000     0.301500000000     0.567050000000     0.0368043  
H428     H      0.922820000000     0.203800000000     0.744590000000     0.0449535  
H429     H      0.951570000000     0.275710000000     0.626940000000     0.035327   
H430     H      0.999700000000     0.067730000000     0.799880000000     0.0405677  
H431     H      0.028400000000     0.181530000000     0.823960000000     0.0392698  
H432     H      0.030510000000     0.128030000000     0.774880000000     0.0391296  
H433     H      0.930480000000     0.255800000000     0.693340000000     0.0404792  
H434     H      0.951840000000     0.324580000000     0.680490000000     0.040094   
H435     H      0.947900000000     0.157220000000     0.861070000000     0.0366351  
H436     H      0.099270000000     0.350770000000     0.650310000000     0.143641   
H437     H      0.911560000000     0.745550000000     0.768420000000     0.0451618  
H438     H      0.986310000000     0.618410000000     0.724800000000     0.0363406  
H439     H      0.980450000000     0.712450000000     0.640160000000     0.0561194  
H440     H      0.939640000000     0.802060000000     0.881140000000     0.0395695  
H441     H      0.021150000000     0.590930000000     0.668970000000     0.0514107  
H442     H      0.973120000000     0.831640000000     0.760410000000     0.0388298  
H443     H      0.975260000000     0.745910000000     0.853680000000     0.0357255  
H444     H      0.985800000000     0.886360000000     0.810060000000     0.050757   
H445     H      0.967630000000     0.660920000000     0.585760000000     0.0310531  
H446     H      0.918950000000     0.694070000000     0.716540000000     0.0417761  
H447     H      0.972670000000     0.568420000000     0.669530000000     0.0400312  
H448     H      0.039820000000     0.756880000000     0.775460000000     0.0436939  
H449     H      0.941330000000     0.627070000000     0.696450000000     0.0371136  
H450     H      0.988270000000     0.800610000000     0.903730000000     0.0398242  
H451     H      0.017910000000     0.824930000000     0.789690000000     0.0477123  
H452     H      0.019180000000     0.775440000000     0.843350000000     0.0405354  
H453     H      0.047200000000     0.705610000000     0.723380000000     0.0524896  
H454     H      0.938700000000     0.679650000000     0.647600000000     0.0420446  
H455     H      0.937990000000     0.862660000000     0.814900000000     0.0392669  
H456     H      0.087520000000     0.652860000000     0.614890000000     0.150266   
H457     H      0.928030000000     0.712180000000     0.275940000000     0.0415259  
H458     H      0.974240000000     0.854460000000     0.225690000000     0.0372515  
H459     H      0.981710000000     0.760610000000     0.140870000000     0.0560001  
H460     H      0.031140000000     0.671670000000     0.380210000000     0.042718   
H461     H      0.937780000000     0.880120000000     0.169710000000     0.0510873  
H462     H      0.999520000000     0.641360000000     0.259910000000     0.0360322  
H463     H      0.992390000000     0.726340000000     0.353660000000     0.0357747  
H464     H      0.989770000000     0.585710000000     0.309140000000     0.0375404  
H465     H      0.992750000000     0.812150000000     0.086490000000     0.030706   
H466     H      0.917250000000     0.763570000000     0.224580000000     0.0516307  
H467     H      0.985090000000     0.904990000000     0.170660000000     0.0391648  
H468     H      0.055370000000     0.730860000000     0.267880000000     0.0456219  
H469     H      0.019190000000     0.847350000000     0.196830000000     0.0380619  
H470     H      0.982800000000     0.671110000000     0.403460000000     0.0405742  
H471     H      0.954200000000     0.645370000000     0.288890000000     0.0377329  
H472     H      0.950090000000     0.694550000000     0.343220000000     0.0373471  
H473     H      0.044590000000     0.782320000000     0.216650000000     0.0413632  
H474     H      0.022840000000     0.794300000000     0.147860000000     0.0429929  
H475     H      0.035990000000     0.612300000000     0.314790000000     0.0417537  
H476     H      0.873070000000     0.818900000000     0.116500000000     0.149483   
H477     H      0.929070000000     0.278250000000     0.257320000000     0.0427502  
H478     H      0.977750000000     0.226680000000     0.116360000000     0.0365455  
H479     H      0.981880000000     0.142020000000     0.210540000000     0.0565068  
H480     H      0.032990000000     0.381000000000     0.299970000000     0.037105   
H481     H      0.940890000000     0.171440000000     0.089870000000     0.052674   
H482     H      0.998410000000     0.261180000000     0.329950000000     0.0364625  
H483     H      0.994960000000     0.354840000000     0.244670000000     0.0354589  
H484     H      0.988320000000     0.310770000000     0.385300000000     0.0387256  
H485     H      0.992530000000     0.087240000000     0.159340000000     0.0294767  
H486     H      0.918670000000     0.226880000000     0.205840000000     0.0519252  
H487     H      0.988820000000     0.171260000000     0.066200000000     0.0378014  
H488     H      0.056670000000     0.267890000000     0.241860000000     0.0452345  
H489     H      0.022010000000     0.197060000000     0.124500000000     0.0381313  
H490     H      0.984970000000     0.404890000000     0.299740000000     0.0383626  
H491     H      0.953820000000     0.291080000000     0.324860000000     0.0398921  
H492     H      0.951830000000     0.345220000000     0.275590000000     0.0400784  
H493     H      0.046270000000     0.216650000000     0.190300000000     0.0416577  
H494     H      0.023680000000     0.148120000000     0.177510000000     0.0430533  
H495     H      0.035330000000     0.315200000000     0.359890000000     0.0387661  
H496     H      0.873740000000     0.119610000000     0.149900000000     0.151165   
N1       N      0.495520000000     0.360330000000     0.120930000000    -0.169256   
N2       N      0.500520000000     0.302090000000     0.182130000000    -0.100863   
N3       N      0.470290000000     0.182690000000     0.300200000000    -0.113316   
N4       N      0.475590000000     0.121200000000     0.357970000000    -0.166344   
N5       N      0.492960000000     0.622200000000     0.111130000000    -0.170384   
N6       N      0.498680000000     0.683460000000     0.169230000000    -0.101341   
N7       N      0.470390000000     0.801020000000     0.289630000000    -0.113137   
N8       N      0.476000000000     0.859040000000     0.350790000000    -0.165456   
N9       N      0.491480000000     0.851730000000     0.612740000000    -0.169926   
N10      N      0.495810000000     0.790130000000     0.670530000000    -0.101841   
N11      N      0.466170000000     0.670320000000     0.788370000000    -0.113138   
N12      N      0.472130000000     0.612330000000     0.849600000000    -0.165756   
N13      N      0.496010000000     0.114260000000     0.619080000000    -0.168238   
N14      N      0.500860000000     0.172300000000     0.680260000000    -0.102049   
N15      N      0.473420000000     0.288870000000     0.801670000000    -0.112992   
N16      N      0.479310000000     0.350410000000     0.859200000000    -0.165527   
N17      N      0.618840000000     0.115590000000     0.486870000000    -0.168395   
N18      N      0.679490000000     0.174180000000     0.490500000000    -0.101884   
N19      N      0.797790000000     0.293780000000     0.462660000000    -0.113187   
N20      N      0.856840000000     0.353830000000     0.469210000000    -0.164841   
N21      N      0.615290000000     0.854270000000     0.473760000000    -0.16951    
N22      N      0.674270000000     0.793970000000     0.469170000000    -0.10171    
N23      N      0.792000000000     0.673980000000     0.497830000000    -0.113315   
N24      N      0.852550000000     0.615360000000     0.492860000000    -0.164618   
N25      N      0.118840000000     0.357450000000     0.478230000000    -0.169849   
N26      N      0.179250000000     0.298540000000     0.473440000000    -0.101324   
N27      N      0.297490000000     0.179140000000     0.502600000000    -0.113483   
N28      N      0.356440000000     0.118930000000     0.496940000000    -0.166122   
N29      N      0.115080000000     0.618470000000     0.494750000000    -0.166889   
N30      N      0.174310000000     0.678170000000     0.500390000000    -0.102103   
N31      N      0.292880000000     0.798280000000     0.476890000000    -0.113126   
N32      N      0.353200000000     0.856810000000     0.483630000000    -0.164952   
N33      N      0.857420000000     0.487490000000     0.350420000000    -0.169881   
N34      N      0.799250000000     0.483640000000     0.289410000000    -0.101672   
N35      N      0.680760000000     0.509770000000     0.169520000000    -0.112999   
N36      N      0.619680000000     0.502040000000     0.111640000000    -0.163571   
N37      N      0.119690000000     0.500820000000     0.357710000000    -0.168128   
N38      N      0.180820000000     0.506460000000     0.299580000000    -0.10247    
N39      N      0.300150000000     0.477060000000     0.181330000000    -0.113359   
N40      N      0.358210000000     0.481930000000     0.120200000000    -0.166291   
N41      N      0.350180000000     0.477880000000     0.858430000000    -0.169445   
N42      N      0.289160000000     0.472740000000     0.800560000000    -0.102863   
N43      N      0.170780000000     0.495620000000     0.680140000000    -0.112904   
N44      N      0.112950000000     0.487970000000     0.619230000000    -0.162181   
N45      N      0.851120000000     0.481890000000     0.612520000000    -0.169835   
N46      N      0.790290000000     0.486490000000     0.670690000000    -0.101784   
N47      N      0.670920000000     0.464570000000     0.790520000000    -0.113394   
N48      N      0.612510000000     0.474120000000     0.850850000000    -0.166611   
N49      N      0.850960000000     0.857830000000     0.992450000000    -0.168713   
N50      N      0.790130000000     0.799320000000     0.996900000000    -0.101525   
N51      N      0.672380000000     0.679800000000     0.966510000000    -0.112955   
N52      N      0.613690000000     0.619350000000     0.971560000000    -0.165132   
N53      N      0.618710000000     0.357490000000     0.988190000000    -0.16928    
N54      N      0.679210000000     0.298650000000     0.991980000000    -0.102016   
N55      N      0.797910000000     0.179680000000     0.962750000000    -0.112756   
N56      N      0.856290000000     0.118910000000     0.968790000000    -0.164363   
N57      N      0.351450000000     0.614960000000     0.979840000000    -0.16984    
N58      N      0.290690000000     0.673800000000     0.975970000000    -0.101601   
N59      N      0.172450000000     0.792940000000     0.007350000000    -0.11017    
N60      N      0.113380000000     0.853300000000     0.002200000000    -0.165439   
N61      N      0.117960000000     0.114900000000     0.984890000000    -0.169628   
N62      N      0.177970000000     0.173420000000     0.992840000000    -0.10197    
N63      N      0.298740000000     0.292760000000     0.978230000000    -0.112208   
N64      N      0.356910000000     0.352900000000     0.988390000000    -0.164215   
N65      N      0.621220000000     0.984860000000     0.611620000000    -0.166409   
N66      N      0.682410000000     0.987910000000     0.669480000000    -0.102267   
N67      N      0.801590000000     0.962190000000     0.788630000000    -0.112658   
N68      N      0.858990000000     0.970790000000     0.850090000000    -0.166525   
N69      N      0.120520000000     0.972660000000     0.859260000000    -0.170769   
N70      N      0.182440000000     0.966070000000     0.801870000000    -0.100289   
N71      N      0.301920000000     0.993140000000     0.683060000000    -0.113702   
N72      N      0.359490000000     0.987860000000     0.621440000000    -0.165582   
N73      N      0.349300000000     0.988850000000     0.359420000000    -0.169591   
N74      N      0.287700000000     0.983010000000     0.302130000000    -0.102447   
N75      N      0.168630000000     0.003390000000     0.181810000000    -0.110763   
N76      N      0.110930000000     0.994760000000     0.120800000000    -0.16556    
N77      N      0.848890000000     0.001410000000     0.110580000000    -0.167188   
N78      N      0.787190000000     0.006490000000     0.168210000000    -0.0976836  
N79      N      0.668330000000     0.976590000000     0.286790000000    -0.112495   
N80      N      0.611050000000     0.981490000000     0.348710000000    -0.165069   
N81      N      0.992730000000     0.349070000000     0.609140000000    -0.170401   
N82      N      0.001230000000     0.286830000000     0.665790000000    -0.0992192  
N83      N      0.980190000000     0.166330000000     0.784710000000    -0.112804   
N84      N      0.987330000000     0.109780000000     0.847000000000    -0.166379   
N85      N      0.983280000000     0.610790000000     0.622220000000    -0.168917   
N86      N      0.989500000000     0.667420000000     0.684400000000    -0.101834   
N87      N      0.969180000000     0.786280000000     0.804900000000    -0.112638   
N88      N      0.978210000000     0.848240000000     0.861560000000    -0.164607   
N89      N      0.976870000000     0.862160000000     0.123190000000    -0.169688   
N90      N      0.972330000000     0.805260000000     0.185400000000    -0.101354   
N91      N      0.000510000000     0.686700000000     0.304580000000    -0.110667   
N92      N      0.994270000000     0.624030000000     0.360870000000    -0.166966   
N93      N      0.978440000000     0.124100000000     0.108920000000    -0.169285   
N94      N      0.974080000000     0.186580000000     0.165610000000    -0.101182   
N95      N      0.001380000000     0.305730000000     0.284570000000    -0.110382   
N96      N      0.995100000000     0.362290000000     0.347070000000    -0.167751   
O1       O      0.982160000000     0.102980000000     0.043820000000    -0.373831   
O2       O      0.980860000000     0.876650000000     0.056560000000    -0.368938   
O3       O      0.915450000000     0.995510000000     0.095710000000    -0.369718   
O4       O      0.045580000000     0.991910000000     0.100890000000    -0.375913   
O5       O      0.095540000000     0.988790000000     0.054390000000    -0.36927    
O6       O      0.869070000000     0.994350000000     0.045620000000    -0.362983   
O7       O      0.979240000000     0.927360000000     0.102260000000    -0.377337   
O8       O      0.980810000000     0.057320000000     0.094590000000    -0.367588   
O9       O      0.023040000000     0.947250000000     0.029420000000    -0.506089   
O10      O      0.943530000000     0.029330000000     0.021850000000    -0.502262   
O11      O      0.941950000000     0.948510000000     0.026520000000    -0.653112   
O12      O      0.024350000000     0.028020000000     0.024790000000    -0.650355   
O13      O      0.982070000000     0.869110000000     0.926620000000    -0.376702   
O14      O      0.988260000000     0.095460000000     0.913830000000    -0.377809   
O15      O      0.870170000000     0.923140000000     0.986480000000    -0.369435   
O16      O      0.096770000000     0.919280000000     0.995200000000    -0.374791   
O17      O      0.099140000000     0.049150000000     0.985000000000    -0.367677   
O18      O      0.872520000000     0.052750000000     0.975350000000    -0.370684   
O19      O      0.924090000000     0.977550000000     0.869760000000    -0.375195   
O20      O      0.054030000000     0.977430000000     0.874530000000    -0.370748   
O21      O      0.874090000000     0.979630000000     0.916220000000    -0.375408   
O22      O      0.100610000000     0.979430000000     0.924440000000    -0.376939   
O23      O      0.917450000000     0.874050000000     0.990680000000    -0.370847   
O24      O      0.921640000000     0.100170000000     0.975800000000    -0.375141   
O25      O      0.051680000000     0.098200000000     0.981920000000    -0.37856    
O26      O      0.047780000000     0.871720000000     0.995480000000    -0.375239   
O27      O      0.984390000000     0.914750000000     0.875870000000    -0.369459   
O28      O      0.988990000000     0.044680000000     0.868150000000    -0.376805   
O29      O      0.027580000000     0.023720000000     0.943890000000    -0.506167   
O30      O      0.945340000000     0.944230000000     0.945860000000    -0.508647   
O31      O      0.946370000000     0.024760000000     0.940820000000    -0.652696   
O32      O      0.026090000000     0.942320000000     0.948420000000    -0.652039   
O33      O      0.990210000000     0.376560000000     0.413800000000    -0.374795   
O34      O      0.987940000000     0.602980000000     0.425600000000    -0.377791   
O35      O      0.923080000000     0.489500000000     0.369720000000    -0.378512   
O36      O      0.053320000000     0.495160000000     0.373350000000    -0.374638   
O37      O      0.100300000000     0.493770000000     0.422890000000    -0.364264   
O38      O      0.873690000000     0.487600000000     0.416870000000    -0.368162   
O39      O      0.989820000000     0.557250000000     0.374920000000    -0.37695    
O40      O      0.990470000000     0.427240000000     0.368000000000    -0.376659   
O41      O      0.026140000000     0.529160000000     0.447520000000    -0.506693   
O42      O      0.946790000000     0.447480000000     0.441310000000    -0.507191   
O43      O      0.945130000000     0.528600000000     0.445010000000    -0.65199    
O44      O      0.027660000000     0.448570000000     0.443080000000    -0.653569   
O45      O      0.982440000000     0.596200000000     0.555420000000    -0.367632   
O46      O      0.988600000000     0.369750000000     0.543990000000    -0.37823    
O47      O      0.871220000000     0.549800000000     0.486830000000    -0.369072   
O48      O      0.097810000000     0.552610000000     0.489930000000    -0.363731   
O49      O      0.099980000000     0.422970000000     0.483570000000    -0.370108   
O50      O      0.873480000000     0.419740000000     0.476620000000    -0.369801   
O51      O      0.917610000000     0.481470000000     0.596320000000    -0.378185   
O52      O      0.047590000000     0.483710000000     0.599780000000    -0.36858    
O53      O      0.870480000000     0.481900000000     0.546870000000    -0.367895   
O54      O      0.097070000000     0.485830000000     0.552760000000    -0.37027    
O55      O      0.918780000000     0.598670000000     0.490390000000    -0.377308   
O56      O      0.922450000000     0.372160000000     0.475260000000    -0.37792    
O57      O      0.052500000000     0.374050000000     0.479880000000    -0.374908   
O58      O      0.049070000000     0.600370000000     0.492190000000    -0.368839   
O59      O      0.982370000000     0.545610000000     0.601320000000    -0.37412    
O60      O      0.987060000000     0.415650000000     0.594550000000    -0.371263   
O61      O      0.025690000000     0.444290000000     0.524250000000    -0.506571   
O62      O      0.943510000000     0.524110000000     0.526090000000    -0.508401   
O63      O      0.944520000000     0.442960000000     0.522260000000    -0.651955   
O64      O      0.024300000000     0.525270000000     0.528090000000    -0.656038   
O65      O      0.596090000000     0.984240000000     0.415430000000    -0.370355   
O66      O      0.369610000000     0.990020000000     0.424770000000    -0.368264   
O67      O      0.479770000000     0.924510000000     0.370190000000    -0.374403   
O68      O      0.479580000000     0.054710000000     0.373640000000    -0.377666   
O69      O      0.482170000000     0.101640000000     0.423170000000    -0.377906   
O70      O      0.481230000000     0.874930000000     0.417140000000    -0.374709   
O71      O      0.415990000000     0.989220000000     0.374620000000    -0.377418   
O72      O      0.545980000000     0.986530000000     0.369090000000    -0.378182   
O73      O      0.444010000000     0.028500000000     0.447410000000    -0.507234   
O74      O      0.523890000000     0.946750000000     0.442130000000    -0.506635   
O75      O      0.443210000000     0.947660000000     0.445440000000    -0.653931   
O76      O      0.525330000000     0.027870000000     0.443770000000    -0.651475   
O77      O      0.374810000000     0.986390000000     0.554810000000    -0.377062   
O78      O      0.601370000000     0.984970000000     0.546010000000    -0.368274   
O79      O      0.419380000000     0.873800000000     0.484380000000    -0.377595   
O80      O      0.422100000000     0.100560000000     0.491660000000    -0.375896   
O81      O      0.552400000000     0.098930000000     0.486980000000    -0.371003   
O82      O      0.549420000000     0.872540000000     0.477700000000    -0.376117   
O83      O      0.489320000000     0.918230000000     0.596790000000    -0.369515   
O84      O      0.492770000000     0.048590000000     0.599920000000    -0.367756   
O85      O      0.487430000000     0.871250000000     0.547250000000    -0.37887    
O86      O      0.490610000000     0.098070000000     0.552890000000    -0.367743   
O87      O      0.371640000000     0.922560000000     0.487590000000    -0.371277   
O88      O      0.598240000000     0.920280000000     0.478810000000    -0.369146   
O89      O      0.599910000000     0.050050000000     0.482880000000    -0.368278   
O90      O      0.373230000000     0.052860000000     0.491780000000    -0.37519    
O91      O      0.424840000000     0.984990000000     0.601280000000    -0.376919   
O92      O      0.554770000000     0.983480000000     0.595930000000    -0.363311   
O93      O      0.527910000000     0.025170000000     0.524940000000    -0.503315   
O94      O      0.446030000000     0.945080000000     0.526360000000    -0.508293   
O95      O      0.527300000000     0.944400000000     0.523090000000    -0.654507   
O96      O      0.447330000000     0.026380000000     0.528290000000    -0.653712   
O97      O      0.422560000000     0.371770000000     0.990700000000    -0.376668   
O98      O      0.417910000000     0.598540000000     0.981620000000    -0.376251   
O99      O      0.373980000000     0.484230000000     0.053740000000    -0.377212   
O100     O      0.369850000000     0.482580000000     0.923780000000    -0.363011   
O101     O      0.416700000000     0.480480000000     0.874120000000    -0.376178   
O102     O      0.423560000000     0.487040000000     0.100610000000    -0.37786    
O103     O      0.370570000000     0.549420000000     0.984750000000    -0.369816   
O104     O      0.373430000000     0.419220000000     0.989260000000    -0.3711     
O105     O      0.442960000000     0.524420000000     0.944520000000    -0.507247   
O106     O      0.446680000000     0.446630000000     0.028410000000    -0.508413   
O107     O      0.444920000000     0.528040000000     0.025690000000    -0.651448   
O108     O      0.444500000000     0.443900000000     0.947610000000    -0.654956   
O109     O      0.548110000000     0.600770000000     0.977190000000    -0.371877   
O110     O      0.552480000000     0.374310000000     0.986790000000    -0.369463   
O111     O      0.489130000000     0.555670000000     0.095840000000    -0.37701    
O112     O      0.478540000000     0.547070000000     0.869270000000    -0.377786   
O113     O      0.481470000000     0.416980000000     0.874460000000    -0.376116   
O114     O      0.491380000000     0.425660000000     0.100950000000    -0.369082   
O115     O      0.600330000000     0.494150000000     0.046500000000    -0.373954   
O116     O      0.596510000000     0.481930000000     0.916830000000    -0.378009   
O117     O      0.553470000000     0.494960000000     0.096180000000    -0.368214   
O118     O      0.547000000000     0.479830000000     0.869850000000    -0.378474   
O119     O      0.487540000000     0.602200000000     0.045860000000    -0.368886   
O120     O      0.490040000000     0.375650000000     0.054470000000    -0.371815   
O121     O      0.484920000000     0.370500000000     0.924390000000    -0.374602   
O122     O      0.478370000000     0.596950000000     0.915910000000    -0.374394   
O123     O      0.597200000000     0.553300000000     0.977530000000    -0.37821    
O124     O      0.600000000000     0.423330000000     0.985560000000    -0.377485   
O125     O      0.525280000000     0.445040000000     0.944900000000    -0.508169   
O126     O      0.525880000000     0.528820000000     0.022560000000    -0.506129   
O127     O      0.527840000000     0.448190000000     0.026030000000    -0.653397   
O128     O      0.523900000000     0.526150000000     0.941580000000    -0.651013   
O129     O      0.573040000000     0.352770000000     0.165140000000    -0.20069    
O130     O      0.545630000000     0.382080000000     0.169640000000    -0.0515071  
O131     O      0.556350000000     0.415730000000     0.179040000000    -0.111215   
O132     O      0.569910000000     0.662930000000     0.112960000000    -0.199391   
O133     O      0.540330000000     0.672830000000     0.087310000000    -0.0498343  
O134     O      0.548410000000     0.689430000000     0.055750000000    -0.112208   
O135     O      0.569400000000     0.847120000000     0.647390000000    -0.201861   
O136     O      0.540820000000     0.870440000000     0.663820000000    -0.0516836  
O137     O      0.550240000000     0.897490000000     0.686530000000    -0.111416   
O138     O      0.571660000000     0.151800000000     0.615510000000    -0.196841   
O139     O      0.540130000000     0.168690000000     0.596770000000    -0.0483513  
O140     O      0.545680000000     0.194410000000     0.571390000000    -0.113581   
O141     O      0.658150000000     0.110020000000     0.561320000000    -0.195918   
O142     O      0.673670000000     0.091000000000     0.529250000000    -0.0483859  
O143     O      0.698910000000     0.064990000000     0.533960000000    -0.111487   
O144     O      0.653070000000     0.856030000000     0.397820000000    -0.199353   
O145     O      0.669050000000     0.876450000000     0.428790000000    -0.0500214  
O146     O      0.693620000000     0.902760000000     0.422490000000    -0.113341   
O147     O      0.160260000000     0.354700000000     0.401760000000    -0.201711   
O148     O      0.170360000000     0.380290000000     0.431330000000    -0.0521679  
O149     O      0.187650000000     0.411460000000     0.423290000000    -0.110222   
O150     O      0.151820000000     0.613680000000     0.570570000000    -0.200644   
O151     O      0.168840000000     0.594970000000     0.539090000000    -0.0504448  
O152     O      0.194320000000     0.569380000000     0.544730000000    -0.110077   
O153     O      0.820830000000     0.411230000000     0.350060000000    -0.198734   
O154     O      0.803860000000     0.441490000000     0.370760000000    -0.049661   
O155     O      0.778640000000     0.434270000000     0.396220000000    -0.11271    
O156     O      0.149180000000     0.579110000000     0.361390000000    -0.199059   
O157     O      0.169690000000     0.549900000000     0.380310000000    -0.0498776  
O158     O      0.195680000000     0.558690000000     0.404460000000    -0.109726   
O159     O      0.265100000000     0.428120000000     0.908090000000    -0.207598   
O160     O      0.296190000000     0.433920000000     0.882980000000    -0.0513345  
O161     O      0.313500000000     0.405180000000     0.868450000000    -0.105769   
O162     O      0.813030000000     0.557410000000     0.609500000000    -0.198843   
O163     O      0.797790000000     0.526370000000     0.588610000000    -0.0496263  
O164     O      0.773840000000     0.532500000000     0.561680000000    -0.113116   
O165     O      0.808260000000     0.856300000000     0.068270000000    -0.199753   
O166     O      0.798770000000     0.881540000000     0.038200000000    -0.0500888  
O167     O      0.781420000000     0.912860000000     0.045540000000    -0.1111     
O168     O      0.618910000000     0.322120000000     0.065050000000    -0.200314   
O169     O      0.598030000000     0.304830000000     0.035110000000    -0.0488753  
O170     O      0.572340000000     0.280010000000     0.042820000000    -0.113044   
O171     O      0.316500000000     0.611810000000     0.903250000000    -0.198657   
O172     O      0.298940000000     0.591990000000     0.933760000000    -0.0501255  
O173     O      0.273800000000     0.566410000000     0.926710000000    -0.11107    
O174     O      0.151540000000     0.112600000000     0.062580000000    -0.201799   
O175     O      0.168650000000     0.091560000000     0.032640000000    -0.0497707  
O176     O      0.192230000000     0.064710000000     0.040370000000    -0.115149   
O177     O      0.620100000000     0.060400000000     0.648950000000    -0.196128   
O178     O      0.600780000000     0.029500000000     0.666360000000    -0.0468126  
O179     O      0.576390000000     0.035860000000     0.692830000000    -0.109858   
O180     O      0.131300000000     0.894000000000     0.817600000000    -0.201569   
O181     O      0.102130000000     0.921070000000     0.810690000000    -0.0525511  
O182     O      0.069130000000     0.909860000000     0.799690000000    -0.111393   
O183     O      0.311280000000     0.913360000000     0.364680000000    -0.202124   
O184     O      0.296390000000     0.944860000000     0.385120000000    -0.0502779  
O185     O      0.273010000000     0.939330000000     0.412670000000    -0.116054   
O186     O      0.803530000000     0.078590000000     0.117550000000    -0.199151   
O187     O      0.799970000000     0.051060000000     0.088220000000    -0.0504767  
O188     O      0.791090000000     0.061590000000     0.054360000000    -0.106329   
O189     O      0.071300000000     0.344960000000     0.645650000000    -0.199276   
O190     O      0.042130000000     0.369270000000     0.659420000000    -0.0487277  
O191     O      0.050870000000     0.399050000000     0.678730000000    -0.112256   
O192     O      0.059990000000     0.646240000000     0.620850000000    -0.200573   
O193     O      0.029330000000     0.664210000000     0.601650000000    -0.0486708  
O194     O      0.036090000000     0.689980000000     0.576630000000    -0.113324   
O195     O      0.900560000000     0.825860000000     0.122280000000    -0.200579   
O196     O      0.931310000000     0.808100000000     0.103040000000    -0.0499744  
O197     O      0.924660000000     0.782040000000     0.078280000000    -0.114021   
O198     O      0.901470000000     0.124600000000     0.143320000000    -0.197203   
O199     O      0.931460000000     0.105260000000     0.162260000000    -0.0488055  
O200     O      0.923790000000     0.081370000000     0.188840000000    -0.113144   
Zr1      Zr     0.981760000000     0.990500000000     0.065660000000     1.42914    
Zr2      Zr     0.983310000000     0.905550000000     0.989830000000     1.42735    
Zr3      Zr     0.986060000000     0.066430000000     0.980670000000     1.42273    
Zr4      Zr     0.904230000000     0.987370000000     0.982190000000     1.43305    
Zr5      Zr     0.065250000000     0.984670000000     0.988090000000     1.42453    
Zr6      Zr     0.987830000000     0.981500000000     0.904810000000     1.42563    
Zr7      Zr     0.987400000000     0.490510000000     0.404180000000     1.42622    
Zr8      Zr     0.984280000000     0.566820000000     0.488740000000     1.43247    
Zr9      Zr     0.986900000000     0.405840000000     0.480590000000     1.42409    
Zr10     Zr     0.905010000000     0.485220000000     0.482690000000     1.43203    
Zr11     Zr     0.065950000000     0.487340000000     0.486790000000     1.44458    
Zr12     Zr     0.983530000000     0.482260000000     0.565140000000     1.43001    
Zr13     Zr     0.482410000000     0.988720000000     0.404670000000     1.42507    
Zr14     Zr     0.405110000000     0.987380000000     0.488480000000     1.42875    
Zr15     Zr     0.566130000000     0.985580000000     0.481970000000     1.43346    
Zr16     Zr     0.484750000000     0.905920000000     0.483120000000     1.42867    
Zr17     Zr     0.486710000000     0.067000000000     0.487140000000     1.43149    
Zr18     Zr     0.488590000000     0.984210000000     0.565700000000     1.43341    
Zr19     Zr     0.404770000000     0.485060000000     0.987730000000     1.43254    
Zr20     Zr     0.483680000000     0.566900000000     0.982080000000     1.42722    
Zr21     Zr     0.486870000000     0.405910000000     0.988200000000     1.43155    
Zr22     Zr     0.487540000000     0.489400000000     0.065640000000     1.43136    
Zr23     Zr     0.482880000000     0.483310000000     0.904570000000     1.42876    
Zr24     Zr     0.565750000000     0.487740000000     0.982590000000     1.42601    


