data_structure

_audit_creation_method RASPA-1.0
_audit_creation_date 2023-5-25
_audit_author_name 'Poobodin Mano'

_cell_length_a    33.4037
_cell_length_b    33.3876
_cell_length_c    33.4066
_cell_angle_alpha 90
_cell_angle_beta  90
_cell_angle_gamma 90
_cell_volume      37257.4

_symmetry_cell_setting          triclinic
_symmetry_space_group_name_Hall 'P 1'
_symmetry_space_group_name_H-M  'P 1'
_symmetry_Int_Tables_number     1

_symmetry_equiv_pos_as_xyz 'x,y,z'

loop_
_atom_site_label
_atom_site_type_symbol
_atom_site_fract_x
_atom_site_fract_y
_atom_site_fract_z
_atom_site_charge
C1       C      0.989040000000     0.082580000000     0.093380000000     0.409758   
C2       C      0.997600000000     0.878530000000     0.082540000000     0.390748   
C3       C      0.888340000000     0.975730000000     0.092670000000     0.390157   
C4       C      0.092420000000     0.978380000000     0.082910000000     0.394434   
C5       C      0.985220000000     0.888730000000     0.878790000000     0.397538   
C6       C      0.982580000000     0.092840000000     0.889370000000     0.411609   
C7       C      0.886790000000     0.880180000000     0.987890000000     0.395854   
C8       C      0.090680000000     0.886750000000     0.974860000000     0.411156   
C9       C      0.084700000000     0.090720000000     0.988640000000     0.396034   
C10      C      0.880530000000     0.084410000000     0.998450000000     0.388517   
C11      C      0.878550000000     0.984130000000     0.888580000000     0.409663   
C12      C      0.082590000000     0.991870000000     0.879240000000     0.418337   
C13      C      0.975420000000     0.378180000000     0.389130000000     0.395496   
C14      C      0.985770000000     0.582250000000     0.377800000000     0.409576   
C15      C      0.881200000000     0.485240000000     0.385060000000     0.39265    
C16      C      0.085350000000     0.474550000000     0.381430000000     0.409078   
C17      C      0.986760000000     0.593160000000     0.581890000000     0.414905   
C18      C      0.981480000000     0.389190000000     0.593080000000     0.393832   
C19      C      0.886690000000     0.591380000000     0.480470000000     0.399675   
C20      C      0.091030000000     0.583880000000     0.474930000000     0.391016   
C21      C      0.084010000000     0.379970000000     0.492010000000     0.411204   
C22      C      0.879610000000     0.387420000000     0.494600000000     0.39137    
C23      C      0.885440000000     0.498490000000     0.589100000000     0.414629   
C24      C      0.089450000000     0.484250000000     0.585650000000     0.393131   
C25      C      0.592650000000     0.985340000000     0.388670000000     0.411383   
C26      C      0.388520000000     0.982250000000     0.378380000000     0.412611   
C27      C      0.496190000000     0.878890000000     0.388510000000     0.389767   
C28      C      0.489130000000     0.083130000000     0.378400000000     0.399269   
C29      C      0.378190000000     0.990500000000     0.582280000000     0.39986    
C30      C      0.582230000000     0.997050000000     0.592560000000     0.390738   
C31      C      0.385870000000     0.880970000000     0.488540000000     0.414307   
C32      C      0.380630000000     0.084960000000     0.472420000000     0.394321   
C33      C      0.584790000000     0.090790000000     0.483950000000     0.413474   
C34      C      0.590140000000     0.886630000000     0.496990000000     0.40886    
C35      C      0.478970000000     0.888630000000     0.592170000000     0.41662    
C36      C      0.476150000000     0.092980000000     0.582220000000     0.410565   
C37      C      0.379650000000     0.387070000000     0.975380000000     0.414631   
C38      C      0.386830000000     0.591060000000     0.988530000000     0.393802   
C39      C      0.380990000000     0.485550000000     0.084820000000     0.394744   
C40      C      0.385910000000     0.497770000000     0.880690000000     0.413136   
C41      C      0.591190000000     0.583520000000     0.989880000000     0.411775   
C42      C      0.583900000000     0.379390000000     0.979720000000     0.413526   
C43      C      0.486180000000     0.582770000000     0.091840000000     0.408938   
C44      C      0.492740000000     0.592330000000     0.887650000000     0.39848    
C45      C      0.488160000000     0.388170000000     0.878030000000     0.398416   
C46      C      0.475200000000     0.378550000000     0.081960000000     0.411971   
C47      C      0.585150000000     0.475010000000     0.089200000000     0.409749   
C48      C      0.589810000000     0.482450000000     0.884970000000     0.396036   
C49      C      0.478400000000     0.325980000000     0.180080000000    -0.0346671  
C50      C      0.482300000000     0.127840000000     0.276130000000    -0.0295083  
C51      C      0.497480000000     0.153760000000     0.358120000000    -0.0108721  
C52      C      0.498760000000     0.097670000000     0.306480000000    -0.0052834  
C53      C      0.448300000000     0.206770000000     0.243880000000    -0.0549467  
C54      C      0.512680000000     0.245540000000     0.206850000000    -0.0540152  
C55      C      0.487780000000     0.197040000000     0.255040000000     0.0651256  
C56      C      0.480970000000     0.181080000000     0.325340000000    -0.0263743  
C57      C      0.473190000000     0.255600000000     0.196000000000     0.0644231  
C58      C      0.480230000000     0.276640000000     0.126880000000    -0.111275   
C59      C      0.441210000000     0.235840000000     0.214600000000    -0.0481715  
C60      C      0.464160000000     0.306630000000     0.096120000000     0.323961   
C61      C      0.462240000000     0.358300000000     0.151980000000     0.00970854 
C62      C      0.519760000000     0.216500000000     0.236150000000    -0.0517049  
C63      C      0.495170000000     0.680910000000     0.145180000000    -0.0340275  
C64      C      0.491360000000     0.776860000000     0.343340000000    -0.029915   
C65      C      0.509980000000     0.858540000000     0.318700000000    -0.00803569 
C66      C      0.506670000000     0.806850000000     0.374470000000    -0.00818366 
C67      C      0.460900000000     0.745570000000     0.262710000000    -0.0550115  
C68      C      0.526210000000     0.706870000000     0.227280000000    -0.055796   
C69      C      0.500090000000     0.755720000000     0.274510000000     0.061846   
C70      C      0.494400000000     0.826220000000     0.290270000000    -0.0298146  
C71      C      0.487030000000     0.696990000000     0.215230000000     0.0638165  
C72      C      0.493560000000     0.627700000000     0.194270000000    -0.110718   
C73      C      0.454580000000     0.716450000000     0.233320000000    -0.0506177  
C74      C      0.477590000000     0.597320000000     0.163840000000     0.322766   
C75      C      0.479330000000     0.653520000000     0.112090000000     0.0081737  
C76      C      0.532540000000     0.736000000000     0.256680000000    -0.0527777  
C77      C      0.483590000000     0.843650000000     0.694230000000    -0.0342298  
C78      C      0.487630000000     0.645250000000     0.789620000000    -0.0304974  
C79      C      0.501910000000     0.664460000000     0.873550000000    -0.0105517  
C80      C      0.504090000000     0.612920000000     0.817520000000    -0.00447268 
C81      C      0.453200000000     0.725690000000     0.763020000000    -0.0538337  
C82      C      0.517590000000     0.764700000000     0.726250000000    -0.0538808  
C83      C      0.492680000000     0.715690000000     0.773910000000     0.0651203  
C84      C      0.485600000000     0.694400000000     0.842940000000    -0.027013   
C85      C      0.478110000000     0.774390000000     0.715030000000     0.0660001  
C86      C      0.485080000000     0.790550000000     0.644820000000    -0.112415   
C87      C      0.446120000000     0.754800000000     0.733790000000    -0.0478112  
C88      C      0.468850000000     0.818060000000     0.612020000000     0.326148   
C89      C      0.467450000000     0.873910000000     0.663830000000     0.0103033  
C90      C      0.524670000000     0.735560000000     0.755450000000    -0.0502789  
C91      C      0.482070000000     0.194870000000     0.627030000000    -0.0338143  
C92      C      0.481560000000     0.290300000000     0.824980000000    -0.0304016  
C93      C      0.498790000000     0.373830000000     0.806270000000    -0.00591687 
C94      C      0.497700000000     0.317700000000     0.857830000000    -0.00539247 
C95      C      0.520680000000     0.254900000000     0.736340000000    -0.0528209  
C96      C      0.442230000000     0.235870000000     0.714110000000    -0.0485795  
C97      C      0.488570000000     0.274490000000     0.754870000000     0.0640865  
C98      C      0.482650000000     0.343670000000     0.775850000000    -0.02995    
C99      C      0.474320000000     0.216020000000     0.695840000000     0.0642422  
C100     C      0.479290000000     0.145560000000     0.680220000000    -0.111578   
C101     C      0.513750000000     0.225880000000     0.707050000000    -0.05489    
C102     C      0.463090000000     0.113330000000     0.652080000000     0.323662   
C103     C      0.466170000000     0.165010000000     0.596190000000     0.00885869 
C104     C      0.449150000000     0.264900000000     0.743410000000    -0.0548111  
C105     C      0.683350000000     0.142610000000     0.492650000000    -0.0306189  
C106     C      0.778490000000     0.340940000000     0.488660000000    -0.0300668  
C107     C      0.860180000000     0.317430000000     0.508490000000    -0.00722444 
C108     C      0.807760000000     0.372520000000     0.504240000000    -0.00728275 
C109     C      0.748980000000     0.259800000000     0.458180000000    -0.0542691  
C110     C      0.709400000000     0.224710000000     0.523140000000    -0.056138   
C111     C      0.758310000000     0.271950000000     0.497460000000     0.0623032  
C112     C      0.828550000000     0.288510000000     0.492610000000    -0.0299875  
C113     C      0.700290000000     0.212350000000     0.483880000000     0.0655625  
C114     C      0.630830000000     0.192450000000     0.489030000000    -0.110986   
C115     C      0.720170000000     0.230220000000     0.451600000000    -0.0499428  
C116     C      0.600520000000     0.162150000000     0.472900000000     0.324108   
C117     C      0.655840000000     0.109660000000     0.476830000000     0.00376558 
C118     C      0.738230000000     0.254280000000     0.529720000000    -0.0525008  
C119     C      0.691370000000     0.840440000000     0.491370000000    -0.0336486  
C120     C      0.788100000000     0.642970000000     0.488660000000    -0.0310056  
C121     C      0.871090000000     0.663110000000     0.470540000000    -0.00914899 
C122     C      0.815820000000     0.610660000000     0.471890000000    -0.00349262 
C123     C      0.750910000000     0.731630000000     0.450570000000    -0.0526404  
C124     C      0.732060000000     0.752770000000     0.529340000000    -0.0474481  
C125     C      0.770950000000     0.712960000000     0.482320000000     0.0650507  
C126     C      0.840600000000     0.692980000000     0.487260000000    -0.0277537  
C127     C      0.711810000000     0.771230000000     0.497590000000     0.0639768  
C128     C      0.641410000000     0.787810000000     0.492580000000    -0.110659   
C129     C      0.721590000000     0.760550000000     0.457990000000    -0.0542771  
C130     C      0.609360000000     0.816110000000     0.509110000000     0.322933   
C131     C      0.661790000000     0.871300000000     0.507840000000     0.00848504 
C132     C      0.761420000000     0.723870000000     0.521910000000    -0.0550061  
C133     C      0.182680000000     0.328670000000     0.484120000000    -0.0346974  
C134     C      0.279490000000     0.131010000000     0.478140000000    -0.0300552  
C135     C      0.361230000000     0.155410000000     0.459690000000    -0.00696365 
C136     C      0.308960000000     0.100290000000     0.461140000000    -0.00710776 
C137     C      0.249610000000     0.210640000000     0.512670000000    -0.0546929  
C138     C      0.209150000000     0.248100000000     0.449610000000    -0.055043   
C139     C      0.258970000000     0.200370000000     0.472860000000     0.0630577  
C140     C      0.329470000000     0.183680000000     0.476760000000    -0.0300895  
C141     C      0.200000000000     0.258580000000     0.489410000000     0.0643227  
C142     C      0.130240000000     0.278560000000     0.485360000000    -0.11089    
C143     C      0.220380000000     0.239520000000     0.520730000000    -0.0492932  
C144     C      0.099760000000     0.308270000000     0.502550000000     0.323757   
C145     C      0.154910000000     0.360760000000     0.501320000000     0.00976704 
C146     C      0.238400000000     0.219230000000     0.441550000000    -0.0520048  
C147     C      0.339760000000     0.779290000000     0.483520000000    -0.0302352  
C148     C      0.142240000000     0.682740000000     0.477390000000    -0.0303016  
C149     C      0.162930000000     0.598820000000     0.465040000000    -0.00731902 
C150     C      0.110650000000     0.653930000000     0.461060000000    -0.00755588 
C151     C      0.232630000000     0.717720000000     0.441320000000    -0.0522374  
C152     C      0.250350000000     0.740760000000     0.519820000000    -0.0496214  
C153     C      0.212460000000     0.699490000000     0.473250000000     0.062064   
C154     C      0.192210000000     0.630200000000     0.481110000000    -0.0304755  
C155     C      0.270320000000     0.759190000000     0.487880000000     0.0658545  
C156     C      0.287310000000     0.829230000000     0.479950000000    -0.11072    
C157     C      0.261350000000     0.747330000000     0.448430000000    -0.0560987  
C158     C      0.314770000000     0.862080000000     0.496260000000     0.324268   
C159     C      0.369950000000     0.809580000000     0.499930000000     0.00303764 
C160     C      0.221660000000     0.711140000000     0.512710000000    -0.0535846  
C161     C      0.632370000000     0.479220000000     0.190090000000    -0.0338316  
C162     C      0.830370000000     0.476160000000     0.285850000000    -0.0293487  
C163     C      0.809790000000     0.494670000000     0.368660000000    -0.00733473 
C164     C      0.862880000000     0.492040000000     0.313850000000    -0.00780889 
C165     C      0.748960000000     0.445330000000     0.258270000000    -0.0550885  
C166     C      0.713140000000     0.510620000000     0.219870000000    -0.0553786  
C167     C      0.760720000000     0.484580000000     0.268270000000     0.0629095  
C168     C      0.780000000000     0.478620000000     0.337860000000    -0.0294446  
C169     C      0.701600000000     0.471370000000     0.209630000000     0.0640506  
C170     C      0.684450000000     0.477920000000     0.139610000000    -0.111086   
C171     C      0.719650000000     0.438920000000     0.229140000000    -0.0500142  
C172     C      0.655650000000     0.462330000000     0.107620000000     0.323069   
C173     C      0.600940000000     0.463770000000     0.160610000000     0.00863546 
C174     C      0.742500000000     0.517030000000     0.248950000000    -0.0529078  
C175     C      0.184620000000     0.477940000000     0.330790000000    -0.0341117  
C176     C      0.279820000000     0.478490000000     0.132220000000    -0.0297916  
C177     C      0.362590000000     0.492960000000     0.155960000000    -0.0115005  
C178     C      0.309450000000     0.494550000000     0.101200000000    -0.00640403 
C179     C      0.242000000000     0.517070000000     0.220960000000    -0.0525274  
C180     C      0.220110000000     0.438870000000     0.241440000000    -0.0492557  
C181     C      0.260510000000     0.484700000000     0.201760000000     0.0638299  
C182     C      0.330330000000     0.476910000000     0.184130000000    -0.0268425  
C183     C      0.201770000000     0.471250000000     0.260810000000     0.0638998  
C184     C      0.132390000000     0.478590000000     0.280470000000    -0.110749   
C185     C      0.212840000000     0.510550000000     0.250230000000    -0.0549509  
C186     C      0.101120000000     0.462890000000     0.310060000000     0.32287    
C187     C      0.155970000000     0.462340000000     0.362900000000     0.00901351 
C188     C      0.249230000000     0.445400000000     0.212120000000    -0.0552979  
C189     C      0.286680000000     0.495450000000     0.830530000000    -0.0346572  
C190     C      0.190590000000     0.490470000000     0.632720000000    -0.029676   
C191     C      0.107800000000     0.476810000000     0.656870000000    -0.00792466 
C192     C      0.160800000000     0.473880000000     0.602160000000    -0.00760887 
C193     C      0.228760000000     0.453880000000     0.721990000000    -0.0519852  
C194     C      0.250750000000     0.532520000000     0.740660000000    -0.0501852  
C195     C      0.210060000000     0.485840000000     0.702290000000     0.0628143  
C196     C      0.140160000000     0.493270000000     0.684730000000    -0.029348   
C197     C      0.269290000000     0.500570000000     0.760520000000     0.0645906  
C198     C      0.338780000000     0.493610000000     0.780010000000    -0.111464   
C199     C      0.258170000000     0.461040000000     0.750860000000    -0.0553307  
C200     C      0.370190000000     0.509660000000     0.809280000000     0.324313   
C201     C      0.315550000000     0.511570000000     0.862170000000     0.0101285  
C202     C      0.221380000000     0.525350000000     0.711740000000    -0.0546823  
C203     C      0.838420000000     0.494030000000     0.689800000000    -0.0305392  
C204     C      0.640530000000     0.491080000000     0.785960000000    -0.0297466  
C205     C      0.661200000000     0.471810000000     0.868550000000    -0.0118896  
C206     C      0.608310000000     0.474320000000     0.813820000000    -0.00657321 
C207     C      0.721380000000     0.524130000000     0.758990000000    -0.0543222  
C208     C      0.758240000000     0.460360000000     0.719060000000    -0.0549977  
C209     C      0.710380000000     0.484470000000     0.768260000000     0.063972   
C210     C      0.690930000000     0.488690000000     0.838040000000    -0.0268997  
C211     C      0.769010000000     0.500020000000     0.709550000000     0.0652383  
C212     C      0.786270000000     0.495210000000     0.639310000000    -0.11065    
C213     C      0.750430000000     0.531700000000     0.729840000000    -0.0486122  
C214     C      0.814910000000     0.511720000000     0.607570000000     0.324259   
C215     C      0.869510000000     0.510500000000     0.660470000000     0.00354364 
C216     C      0.729140000000     0.452800000000     0.748150000000    -0.0519284  
C217     C      0.693280000000     0.629760000000     0.995590000000    -0.0362302  
C218     C      0.787820000000     0.828020000000     0.986410000000    -0.0340443  
C219     C      0.872380000000     0.808220000000     0.995600000000    -0.00688843 
C220     C      0.816800000000     0.860540000000     0.000310000000    -4.93459e-05
C221     C      0.758870000000     0.746690000000     0.956280000000    -0.0540073  
C222     C      0.726410000000     0.709940000000     0.024200000000    -0.0542441  
C223     C      0.772180000000     0.757990000000     0.994640000000     0.060521   
C224     C      0.840470000000     0.778450000000     0.981960000000    -0.0312912  
C225     C      0.712990000000     0.698750000000     0.985850000000     0.0630676  
C226     C      0.643540000000     0.682310000000     0.997180000000    -0.114206   
C227     C      0.729500000000     0.717250000000     0.952070000000    -0.0489759  
C228     C      0.610320000000     0.654330000000     0.982940000000     0.324445   
C229     C      0.662900000000     0.598550000000     0.981590000000     0.00898928 
C230     C      0.755820000000     0.739340000000     0.028420000000    -0.0510332  
C231     C      0.630120000000     0.277920000000     0.986670000000    -0.0364205  
C232     C      0.829000000000     0.183000000000     0.994000000000    -0.0353666  
C233     C      0.808840000000     0.099540000000     0.009740000000    -0.00361576 
C234     C      0.860960000000     0.154850000000     0.010880000000    -0.0034631  
C235     C      0.738440000000     0.218590000000     0.029780000000    -0.0489962  
C236     C      0.719680000000     0.238620000000     0.950690000000    -0.0506574  
C237     C      0.758630000000     0.199560000000     0.998330000000     0.0588876  
C238     C      0.779210000000     0.130160000000     0.992860000000    -0.0352058  
C239     C      0.699680000000     0.257850000000     0.982150000000     0.0635016  
C240     C      0.682540000000     0.328050000000     0.987530000000    -0.114635   
C241     C      0.709190000000     0.247500000000     0.021900000000    -0.0540541  
C242     C      0.654740000000     0.360170000000     0.970390000000     0.326383   
C243     C      0.599580000000     0.307640000000     0.969700000000     0.0106226  
C244     C      0.748910000000     0.209690000000     0.958570000000    -0.0536634  
C245     C      0.142240000000     0.788040000000     0.978510000000    -0.0356308  
C246     C      0.340720000000     0.692720000000     0.981810000000    -0.0294367  
C247     C      0.316010000000     0.610350000000     0.997110000000    -0.00838201 
C248     C      0.371340000000     0.662810000000     0.998180000000    -0.00886632 
C249     C      0.251820000000     0.731620000000     0.019490000000    -0.0512372  
C250     C      0.232170000000     0.752990000000     0.940970000000    -0.0492824  
C251     C      0.271330000000     0.712850000000     0.987470000000     0.0612989  
C252     C      0.288200000000     0.642740000000     0.980670000000    -0.0295257  
C253     C      0.212450000000     0.771550000000     0.973000000000     0.0626416  
C254     C      0.192040000000     0.840820000000     0.979930000000    -0.11259    
C255     C      0.222630000000     0.760760000000     0.012460000000    -0.0539585  
C256     C      0.162340000000     0.871800000000     0.963820000000     0.323725   
C257     C      0.110110000000     0.816390000000     0.962400000000     0.00941152 
C258     C      0.261390000000     0.723870000000     0.948010000000    -0.0546949  
C259     C      0.278440000000     0.340950000000     0.981690000000    -0.0366949  
C260     C      0.183020000000     0.142800000000     0.979650000000    -0.0289355  
C261     C      0.100290000000     0.162160000000     0.999690000000    -0.0132919  
C262     C      0.155700000000     0.109870000000     0.995840000000    -0.00853083 
C263     C      0.208750000000     0.224730000000     0.948510000000    -0.0545294  
C264     C      0.248820000000     0.260110000000     0.013000000000    -0.0524954  
C265     C      0.199840000000     0.212630000000     0.987890000000     0.0630818  
C266     C      0.130360000000     0.192520000000     0.983300000000    -0.0263142  
C267     C      0.258000000000     0.271960000000     0.973590000000     0.0637502  
C268     C      0.328320000000     0.288340000000     0.978070000000    -0.114695   
C269     C      0.237640000000     0.254160000000     0.941560000000    -0.048753   
C270     C      0.360070000000     0.317020000000     0.961830000000     0.326403   
C271     C      0.307770000000     0.372290000000     0.965750000000     0.0115662  
C272     C      0.219960000000     0.230660000000     0.019940000000    -0.048858   
C273     C      0.825430000000     0.992700000000     0.790550000000    -0.0361536  
C274     C      0.627240000000     0.991940000000     0.694510000000    -0.036759   
C275     C      0.652200000000     0.010220000000     0.612900000000    -0.00157715 
C276     C      0.596400000000     0.007840000000     0.664510000000    -0.00166044 
C277     C      0.707530000000     0.959960000000     0.725570000000    -0.0538051  
C278     C      0.743680000000     0.024590000000     0.764780000000    -0.0539746  
C279     C      0.696220000000     0.999380000000     0.715680000000     0.0588476  
C280     C      0.680380000000     0.994110000000     0.645170000000    -0.0367218  
C281     C      0.755320000000     0.985180000000     0.774330000000     0.0623853  
C282     C      0.776240000000     0.990630000000     0.843680000000    -0.113025   
C283     C      0.736850000000     0.953070000000     0.754630000000    -0.0495369  
C284     C      0.806670000000     0.974270000000     0.873860000000     0.323454   
C285     C      0.858410000000     0.976490000000     0.817850000000     0.00858134 
C286     C      0.714390000000     0.031490000000     0.735670000000    -0.0504001  
C287     C      0.180740000000     0.999040000000     0.825290000000    -0.0328573  
C288     C      0.275850000000     0.985590000000     0.627490000000    -0.0312725  
C289     C      0.357740000000     0.003560000000     0.651960000000    -0.00371617 
C290     C      0.306080000000     0.999160000000     0.595880000000    -0.00587447 
C291     C      0.243210000000     0.959430000000     0.708690000000    -0.0528837  
C292     C      0.207320000000     0.027290000000     0.742300000000    -0.0524952  
C293     C      0.254770000000     0.997860000000     0.695730000000     0.062206   
C294     C      0.324970000000     0.989560000000     0.680580000000    -0.0332089  
C295     C      0.195930000000     0.988860000000     0.755410000000     0.0654232  
C296     C      0.127310000000     0.999380000000     0.776550000000    -0.113066   
C297     C      0.213980000000     0.955120000000     0.738270000000    -0.0471223  
C298     C      0.096380000000     0.985050000000     0.807120000000     0.324525   
C299     C      0.153020000000     0.984760000000     0.858730000000     0.00366537 
C300     C      0.236500000000     0.031600000000     0.712650000000    -0.0477235  
C301     C      0.290500000000     0.975670000000     0.324890000000    -0.0338753  
C302     C      0.194580000000     0.982460000000     0.127510000000    -0.0329815  
C303     C      0.112960000000     0.964030000000     0.152420000000    -0.00536192 
C304     C      0.164390000000     0.967910000000     0.096350000000    -0.00587774 
C305     C      0.226790000000     0.011210000000     0.207930000000    -0.0530415  
C306     C      0.264280000000     0.944880000000     0.242770000000    -0.0554858  
C307     C      0.215920000000     0.972270000000     0.195940000000     0.0607566  
C308     C      0.145530000000     0.978890000000     0.180850000000    -0.0331283  
C309     C      0.275010000000     0.983820000000     0.254890000000     0.0625901  
C310     C      0.343880000000     0.975020000000     0.275950000000    -0.111423   
C311     C      0.256150000000     0.016790000000     0.237150000000    -0.0479022  
C312     C      0.374640000000     0.990200000000     0.306290000000     0.322242   
C313     C      0.318210000000     0.990940000000     0.357870000000     0.00664101 
C314     C      0.234980000000     0.939290000000     0.213470000000    -0.0527631  
C315     C      0.645890000000     0.977270000000     0.290710000000    -0.0332182  
C316     C      0.843450000000     0.979920000000     0.194650000000    -0.0324235  
C317     C      0.818270000000     0.963270000000     0.112740000000    -0.00689479 
C318     C      0.874180000000     0.964490000000     0.164420000000    -0.00661649 
C319     C      0.763390000000     0.011290000000     0.226370000000    -0.0529095  
C320     C      0.727510000000     0.945880000000     0.264520000000    -0.0558461  
C321     C      0.774630000000     0.972060000000     0.215720000000     0.0601069  
C322     C      0.790220000000     0.978780000000     0.145370000000    -0.0321917  
C323     C      0.715910000000     0.985110000000     0.274800000000     0.0628578  
C324     C      0.695000000000     0.978230000000     0.343950000000    -0.110438   
C325     C      0.734240000000     0.017610000000     0.255670000000    -0.0486846  
C326     C      0.664630000000     0.994140000000     0.374370000000     0.321807   
C327     C      0.612930000000     0.993110000000     0.318140000000     0.00631189 
C328     C      0.756630000000     0.939560000000     0.235170000000    -0.0523998  
C329     C      0.977070000000     0.195600000000     0.844670000000    -0.0338771  
C330     C      0.984020000000     0.291140000000     0.646840000000    -0.03316    
C331     C      0.973040000000     0.375820000000     0.665260000000    -0.0051673  
C332     C      0.969490000000     0.319370000000     0.613940000000    -0.00440555 
C333     C      0.014880000000     0.263750000000     0.728450000000    -0.0527844  
C334     C      0.947730000000     0.229310000000     0.764830000000    -0.0550952  
C335     C      0.976240000000     0.276150000000     0.717060000000     0.0613515  
C336     C      0.987290000000     0.344630000000     0.695620000000    -0.0327289  
C337     C      0.986370000000     0.216660000000     0.775970000000     0.0625748  
C338     C      0.976600000000     0.146620000000     0.791350000000    -0.111643   
C339     C      0.019760000000     0.234240000000     0.757700000000    -0.0469759  
C340     C      0.991230000000     0.113210000000     0.818990000000     0.322463   
C341     C      0.991460000000     0.164860000000     0.875420000000     0.00644102 
C342     C      0.942850000000     0.258840000000     0.735600000000    -0.0525285  
C343     C      0.991540000000     0.695920000000     0.626600000000    -0.0364812  
C344     C      0.981820000000     0.790670000000     0.824720000000    -0.0284211  
C345     C      0.992310000000     0.875480000000     0.806540000000    -0.0152069  
C346     C      0.996070000000     0.818830000000     0.857800000000    -0.00873367 
C347     C      0.951740000000     0.763470000000     0.742680000000    -0.0548038  
C348     C      0.019460000000     0.729650000000     0.706790000000    -0.0524338  
C349     C      0.990200000000     0.776020000000     0.754520000000     0.0633397  
C350     C      0.978340000000     0.844260000000     0.776140000000    -0.024892   
C351     C      0.981010000000     0.716900000000     0.695150000000     0.063065   
C352     C      0.990950000000     0.646920000000     0.679910000000    -0.114412   
C353     C      0.947330000000     0.734150000000     0.713190000000    -0.0485953  
C354     C      0.976750000000     0.613570000000     0.652030000000     0.325128   
C355     C      0.977720000000     0.665190000000     0.595580000000     0.00952284 
C356     C      0.023880000000     0.759020000000     0.736230000000    -0.0500621  
C357     C      0.993990000000     0.626820000000     0.275390000000    -0.0364213  
C358     C      0.995970000000     0.825340000000     0.180220000000    -0.0362687  
C359     C      0.009670000000     0.806680000000     0.096100000000    -0.00230743 
C360     C      0.011730000000     0.857940000000     0.152230000000    -0.00208231 
C361     C      0.033770000000     0.735290000000     0.213930000000    -0.0548344  
C362     C      0.955420000000     0.715220000000     0.235530000000    -0.0488531  
C363     C      0.001590000000     0.754890000000     0.195530000000     0.0647952  
C364     C      0.994020000000     0.776360000000     0.126650000000    -0.0361514  
C365     C      0.987610000000     0.695910000000     0.254220000000     0.0607217  
C366     C      0.994460000000     0.680110000000     0.324490000000    -0.113929   
C367     C      0.026980000000     0.706020000000     0.243050000000    -0.0526174  
C368     C      0.978000000000     0.652790000000     0.357290000000     0.32374    
C369     C      0.977770000000     0.596480000000     0.305670000000     0.00916417 
C370     C      0.962200000000     0.744470000000     0.206410000000    -0.0583926  
C371     C      0.982690000000     0.127110000000     0.195680000000    -0.0336685  
C372     C      0.978420000000     0.325150000000     0.291370000000    -0.0337714  
C373     C      0.964500000000     0.306180000000     0.375400000000    -0.00567844 
C374     C      0.962170000000     0.357520000000     0.319320000000    -0.00407998 
C375     C      0.012910000000     0.244780000000     0.264920000000    -0.0528353  
C376     C      0.948530000000     0.205830000000     0.228080000000    -0.0548382  
C377     C      0.973420000000     0.254710000000     0.275850000000     0.0615692  
C378     C      0.980580000000     0.276070000000     0.344820000000    -0.0326101  
C379     C      0.988010000000     0.196250000000     0.216800000000     0.0624419  
C380     C      0.980960000000     0.180390000000     0.146540000000    -0.111122   
C381     C      0.020000000000     0.215780000000     0.235600000000    -0.0469847  
C382     C      0.997400000000     0.153200000000     0.113600000000     0.32183    
C383     C      0.999090000000     0.097050000000     0.165230000000     0.00680493 
C384     C      0.941440000000     0.234860000000     0.257370000000    -0.0522962  
F1       F      0.423640000000     0.299900000000     0.090480000000    -0.438442   
F2       F      0.436930000000     0.592050000000     0.169970000000    -0.444164   
F3       F      0.428320000000     0.810860000000     0.607070000000    -0.432906   
F4       F      0.422100000000     0.110020000000     0.657330000000    -0.443294   
F5       F      0.596630000000     0.167290000000     0.431950000000    -0.438315   
F6       F      0.605620000000     0.810000000000     0.549940000000    -0.44067    
F7       F      0.096010000000     0.301780000000     0.543320000000    -0.438377   
F8       F      0.306460000000     0.868040000000     0.536430000000    -0.4311     
F9       F      0.661160000000     0.421470000000     0.103100000000    -0.442333   
F10      F      0.095740000000     0.422230000000     0.303870000000    -0.44169    
F11      F      0.375510000000     0.550250000000     0.802610000000    -0.439202   
F12      F      0.809080000000     0.552620000000     0.603950000000    -0.431386   
F13      F      0.602830000000     0.661470000000     0.942790000000    -0.443762   
F14      F      0.662160000000     0.364330000000     0.929820000000    -0.441434   
F15      F      0.169000000000     0.877210000000     0.923260000000    -0.437615   
F16      F      0.363090000000     0.312120000000     0.920780000000    -0.441421   
F17      F      0.800750000000     0.933460000000     0.878360000000    -0.438503   
F18      F      0.088690000000     0.944780000000     0.800780000000    -0.437637   
F19      F      0.381410000000     0.030600000000     0.299750000000    -0.438165   
F20      F      0.670860000000     0.034780000000     0.379830000000    -0.437041   
F21      F      0.031640000000     0.106770000000     0.812330000000    -0.43643    
F22      F      0.936180000000     0.607300000000     0.657880000000    -0.434268   
F23      F      0.937500000000     0.660250000000     0.362150000000    -0.444009   
F24      F      0.037810000000     0.160960000000     0.108490000000    -0.441667   
H1       H      0.933220000000     0.923640000000     0.043040000000     0.210135   
H2       H      0.044030000000     0.041220000000     0.043790000000     0.216125   
H3       H      0.923750000000     0.044200000000     0.934220000000     0.205474   
H4       H      0.041450000000     0.933180000000     0.923590000000     0.223588   
H5       H      0.929190000000     0.541660000000     0.426300000000     0.217379   
H6       H      0.039250000000     0.422820000000     0.430330000000     0.213591   
H7       H      0.927040000000     0.434070000000     0.546790000000     0.209527   
H8       H      0.046010000000     0.544140000000     0.538710000000     0.206137   
H9       H      0.432250000000     0.924040000000     0.427960000000     0.205455   
H10      H      0.543750000000     0.041700000000     0.428630000000     0.222742   
H11      H      0.541050000000     0.932990000000     0.548730000000     0.213609   
H12      H      0.423820000000     0.044410000000     0.536530000000     0.216124   
H13      H      0.429180000000     0.541740000000     0.043300000000     0.216632   
H14      H      0.427570000000     0.432990000000     0.923080000000     0.214004   
H15      H      0.539090000000     0.422770000000     0.040670000000     0.213752   
H16      H      0.546180000000     0.542670000000     0.931500000000     0.216693   
H17      H      0.550270000000     0.209370000000     0.244480000000     0.0518101  
H18      H      0.467290000000     0.332360000000     0.210840000000     0.0399338  
H19      H      0.470620000000     0.246000000000     0.117900000000     0.083183   
H20      H      0.530020000000     0.159810000000     0.361690000000     0.0680845  
H21      H      0.429340000000     0.360810000000     0.156420000000     0.0561565  
H22      H      0.493030000000     0.119140000000     0.245810000000     0.0427206  
H23      H      0.490620000000     0.212320000000     0.331870000000     0.0415623  
H24      H      0.484630000000     0.068110000000     0.300490000000     0.0581344  
H25      H      0.479590000000     0.300710000000     0.067220000000    -0.0061137  
H26      H      0.537930000000     0.260370000000     0.192980000000     0.0445511  
H27      H      0.475760000000     0.387410000000     0.160820000000     0.0386882  
H28      H      0.423050000000     0.192230000000     0.258050000000     0.048674   
H29      H      0.511710000000     0.327540000000     0.180540000000     0.0401003  
H30      H      0.482620000000     0.161890000000     0.386770000000     0.0524406  
H31      H      0.448980000000     0.126360000000     0.276160000000     0.0546984  
H32      H      0.447640000000     0.180170000000     0.326030000000     0.0428381  
H33      H      0.410690000000     0.243290000000     0.206590000000     0.0571052  
H34      H      0.513560000000     0.277470000000     0.126570000000     0.0552107  
H35      H      0.531500000000     0.094300000000     0.301510000000     0.0463073  
H36      H      0.562850000000     0.743550000000     0.265380000000     0.0452405  
H37      H      0.485460000000     0.712100000000     0.138480000000     0.0383822  
H38      H      0.482800000000     0.618990000000     0.224600000000     0.0809002  
H39      H      0.542960000000     0.861060000000     0.314930000000     0.0390532  
H40      H      0.446920000000     0.659750000000     0.107660000000     0.0516895  
H41      H      0.500940000000     0.746290000000     0.352590000000     0.0371933  
H42      H      0.506140000000     0.832600000000     0.259730000000     0.035748   
H43      H      0.490940000000     0.800940000000     0.403200000000     0.0420629  
H44      H      0.492610000000     0.568180000000     0.169750000000    -0.00889973 
H45      H      0.551820000000     0.692360000000     0.213740000000     0.0411291  
H46      H      0.494940000000     0.661440000000     0.083780000000     0.0383454  
H47      H      0.435300000000     0.760400000000     0.275920000000     0.042028   
H48      H      0.528510000000     0.680200000000     0.145020000000     0.0369015  
H49      H      0.496620000000     0.887650000000     0.309610000000     0.0408589  
H50      H      0.458030000000     0.777590000000     0.342900000000     0.0376838  
H51      H      0.461100000000     0.827770000000     0.289100000000     0.0373733  
H52      H      0.424290000000     0.709220000000     0.224300000000     0.0543215  
H53      H      0.526890000000     0.626530000000     0.194490000000     0.0523001  
H54      H      0.539120000000     0.801380000000     0.379490000000     0.0400812  
H55      H      0.555180000000     0.728140000000     0.763500000000     0.0525273  
H56      H      0.472600000000     0.852290000000     0.724480000000     0.0409491  
H57      H      0.475490000000     0.759310000000     0.638160000000     0.0873403  
H58      H      0.534420000000     0.670220000000     0.877830000000     0.0670217  
H59      H      0.434630000000     0.877150000000     0.668380000000     0.0601369  
H60      H      0.498640000000     0.639050000000     0.758780000000     0.0434846  
H61      H      0.495140000000     0.725020000000     0.852030000000     0.0413715  
H62      H      0.490520000000     0.583790000000     0.808760000000     0.0540683  
H63      H      0.484160000000     0.809920000000     0.583610000000     0.0030644  
H64      H      0.542840000000     0.779320000000     0.712180000000     0.0481335  
H65      H      0.481400000000     0.903480000000     0.670160000000     0.0385729  
H66      H      0.427960000000     0.710760000000     0.776790000000     0.0497966  
H67      H      0.516900000000     0.845090000000     0.694490000000     0.0413133  
H68      H      0.486820000000     0.670140000000     0.902680000000     0.051623   
H69      H      0.454320000000     0.643530000000     0.789290000000     0.0550266  
H70      H      0.452270000000     0.693390000000     0.843280000000     0.0434464  
H71      H      0.415620000000     0.761900000000     0.725410000000     0.0601586  
H72      H      0.518420000000     0.791400000000     0.644310000000     0.066769   
H73      H      0.536960000000     0.610460000000     0.812800000000     0.0439801  
H74      H      0.423830000000     0.279530000000     0.757350000000     0.0482867  
H75      H      0.472620000000     0.225510000000     0.617870000000     0.0388379  
H76      H      0.468020000000     0.139380000000     0.710980000000     0.0822934  
H77      H      0.531570000000     0.377280000000     0.801580000000     0.0427221  
H78      H      0.433690000000     0.170700000000     0.591570000000     0.0536953  
H79      H      0.491480000000     0.259140000000     0.831510000000     0.0420666  
H80      H      0.493450000000     0.352480000000     0.745580000000     0.0371988  
H81      H      0.482870000000     0.309360000000     0.886440000000     0.0538483  
H82      H      0.476870000000     0.084340000000     0.660990000000    -0.00785923 
H83      H      0.411760000000     0.228490000000     0.705830000000     0.0574174  
H84      H      0.481580000000     0.170780000000     0.567250000000     0.0381333  
H85      H      0.551130000000     0.261950000000     0.744950000000     0.0477329  
H86      H      0.515400000000     0.193850000000     0.627070000000     0.0372054  
H87      H      0.484640000000     0.403350000000     0.800140000000     0.0426947  
H88      H      0.448210000000     0.290910000000     0.825570000000     0.0521774  
H89      H      0.449330000000     0.344940000000     0.775760000000     0.0422137  
H90      H      0.539060000000     0.210890000000     0.693470000000     0.0416597  
H91      H      0.512590000000     0.143780000000     0.680900000000     0.0535331  
H92      H      0.530310000000     0.312030000000     0.861430000000     0.0456343  
H93      H      0.745170000000     0.263320000000     0.560070000000     0.0453707  
H94      H      0.714620000000     0.135350000000     0.483640000000     0.043131   
H95      H      0.622770000000     0.222690000000     0.477520000000     0.0814113  
H96      H      0.862300000000     0.313860000000     0.541530000000     0.0370282  
H97      H      0.662450000000     0.104770000000     0.444570000000     0.0810315  
H98      H      0.747680000000     0.349800000000     0.497770000000     0.0367374  
H99      H      0.835150000000     0.258100000000     0.504590000000     0.0365683  
H100     H      0.801660000000     0.401130000000     0.488330000000     0.0414448  
H101     H      0.571070000000     0.168950000000     0.486860000000    -0.0089112  
H102     H      0.694440000000     0.211360000000     0.548590000000     0.0414719  
H103     H      0.663170000000     0.081430000000     0.492910000000     0.0469251  
H104     H      0.764120000000     0.272960000000     0.432740000000     0.043799   
H105     H      0.681980000000     0.142990000000     0.525960000000     0.0364662  
H106     H      0.889580000000     0.308670000000     0.495570000000     0.0416518  
H107     H      0.779720000000     0.340360000000     0.455340000000     0.0392849  
H108     H      0.830560000000     0.287240000000     0.459350000000     0.0393248  
H109     H      0.713430000000     0.220970000000     0.421260000000     0.0589471  
H110     H      0.628870000000     0.193260000000     0.522310000000     0.052487   
H111     H      0.801820000000     0.377560000000     0.536610000000     0.0372526  
H112     H      0.776410000000     0.709860000000     0.546990000000     0.051518   
H113     H      0.722030000000     0.849030000000     0.501220000000     0.0393271  
H114     H      0.634750000000     0.756900000000     0.503150000000     0.0827812  
H115     H      0.874120000000     0.668150000000     0.437770000000     0.0633574  
H116     H      0.667230000000     0.874930000000     0.540480000000     0.0542081  
H117     H      0.756930000000     0.635980000000     0.479110000000     0.0419832  
H118     H      0.848790000000     0.723480000000     0.476580000000     0.0408104  
H119     H      0.808110000000     0.581790000000     0.486580000000     0.053812   
H120     H      0.580390000000     0.807930000000     0.494900000000    -0.00640004 
H121     H      0.724850000000     0.760690000000     0.559940000000     0.058197   
H122     H      0.668180000000     0.900570000000     0.493310000000     0.0385651  
H123     H      0.757900000000     0.723490000000     0.419980000000     0.0491237  
H124     H      0.690580000000     0.841200000000     0.458040000000     0.0375407  
H125     H      0.900650000000     0.669550000000     0.484440000000     0.0514174  
H126     H      0.789170000000     0.642140000000     0.521980000000     0.0570438  
H127     H      0.842260000000     0.692870000000     0.520560000000     0.0463242  
H128     H      0.706430000000     0.774370000000     0.432920000000     0.0418168  
H129     H      0.639860000000     0.787840000000     0.459270000000     0.053314   
H130     H      0.809760000000     0.607230000000     0.439340000000     0.0418905  
H131     H      0.245270000000     0.211660000000     0.410780000000     0.0485947  
H132     H      0.213850000000     0.335630000000     0.493640000000     0.0389968  
H133     H      0.122190000000     0.247890000000     0.495680000000     0.0822537  
H134     H      0.363220000000     0.160250000000     0.426820000000     0.044009   
H135     H      0.160960000000     0.363740000000     0.533910000000     0.0551529  
H136     H      0.248740000000     0.122510000000     0.468500000000     0.0384778  
H137     H      0.336070000000     0.214580000000     0.466100000000     0.0375638  
H138     H      0.302590000000     0.070840000000     0.475300000000     0.0430374  
H139     H      0.070290000000     0.301850000000     0.488470000000    -0.00781778 
H140     H      0.193910000000     0.262390000000     0.424840000000     0.0441497  
H141     H      0.162620000000     0.389830000000     0.487040000000     0.0370355  
H142     H      0.265030000000     0.196530000000     0.537430000000     0.0461315  
H143     H      0.181500000000     0.329850000000     0.450810000000     0.0394491  
H144     H      0.390660000000     0.163710000000     0.472840000000     0.0429536  
H145     H      0.280580000000     0.129960000000     0.511460000000     0.0414395  
H146     H      0.331450000000     0.183550000000     0.510050000000     0.0414682  
H147     H      0.213710000000     0.247300000000     0.551490000000     0.0569533  
H148     H      0.128350000000     0.279010000000     0.452070000000     0.0547848  
H149     H      0.303380000000     0.097120000000     0.428470000000     0.0442354  
H150     H      0.206480000000     0.697570000000     0.537920000000     0.0441006  
H151     H      0.347810000000     0.749090000000     0.495140000000     0.043854   
H152     H      0.255930000000     0.836370000000     0.488670000000     0.0818869  
H153     H      0.168960000000     0.594210000000     0.432630000000     0.0387458  
H154     H      0.372440000000     0.805410000000     0.532870000000     0.0863984  
H155     H      0.135700000000     0.713240000000     0.465630000000     0.037078   
H156     H      0.223050000000     0.621410000000     0.472070000000     0.0364667  
H157     H      0.081150000000     0.662660000000     0.473770000000     0.0415491  
H158     H      0.307500000000     0.890270000000     0.480080000000    -0.00935863 
H159     H      0.256940000000     0.749600000000     0.550310000000     0.0608012  
H160     H      0.399730000000     0.802720000000     0.486720000000     0.0461721  
H161     H      0.225830000000     0.709100000000     0.410820000000     0.045296   
H162     H      0.341960000000     0.778520000000     0.450250000000     0.0355367  
H163     H      0.169000000000     0.569990000000     0.480570000000     0.039228   
H164     H      0.140010000000     0.683740000000     0.510650000000     0.0388104  
H165     H      0.190820000000     0.630430000000     0.514430000000     0.0382724  
H166     H      0.276330000000     0.761090000000     0.423210000000     0.0411875  
H167     H      0.288950000000     0.829130000000     0.446640000000     0.0513322  
H168     H      0.108830000000     0.657720000000     0.428040000000     0.0393376  
H169     H      0.751240000000     0.547360000000     0.256390000000     0.0471139  
H170     H      0.623950000000     0.469050000000     0.220690000000     0.0388309  
H171     H      0.715120000000     0.466980000000     0.132480000000     0.0815488  
H172     H      0.805160000000     0.527500000000     0.371960000000     0.0410493  
H173     H      0.596630000000     0.431140000000     0.165700000000     0.0532827  
H174     H      0.837830000000     0.485570000000     0.254760000000     0.0373565  
H175     H      0.749630000000     0.489850000000     0.345790000000     0.0366248  
H176     H      0.891290000000     0.476210000000     0.306720000000     0.0423099  
H177     H      0.663750000000     0.476950000000     0.078820000000    -0.00666714 
H178     H      0.699640000000     0.536210000000     0.205270000000     0.0413528  
H179     H      0.572060000000     0.478890000000     0.167390000000     0.0382335  
H180     H      0.762540000000     0.419750000000     0.272810000000     0.0435322  
H181     H      0.632220000000     0.512590000000     0.189830000000     0.0371222  
H182     H      0.802910000000     0.480610000000     0.398050000000     0.0415603  
H183     H      0.830310000000     0.442810000000     0.286870000000     0.0389369  
H184     H      0.779450000000     0.445290000000     0.339380000000     0.0386411  
H185     H      0.711040000000     0.408590000000     0.221550000000     0.0555082  
H186     H      0.684900000000     0.511260000000     0.138590000000     0.0530357  
H187     H      0.867620000000     0.524400000000     0.307510000000     0.0426168  
H188     H      0.263070000000     0.419870000000     0.197740000000     0.0457116  
H189     H      0.215310000000     0.467080000000     0.337960000000     0.0385124  
H190     H      0.124040000000     0.468420000000     0.249840000000     0.0812613  
H191     H      0.366890000000     0.525430000000     0.162000000000     0.065238   
H192     H      0.160640000000     0.429550000000     0.366370000000     0.0526939  
H193     H      0.249350000000     0.489420000000     0.124250000000     0.0371085  
H194     H      0.337750000000     0.486580000000     0.215150000000     0.0412029  
H195     H      0.302690000000     0.480160000000     0.071950000000     0.0416869  
H196     H      0.072300000000     0.478140000000     0.303300000000    -0.00790019 
H197     H      0.211850000000     0.408490000000     0.249250000000     0.0563664  
H198     H      0.164030000000     0.476710000000     0.391830000000     0.0362015  
H199     H      0.250390000000     0.547450000000     0.213280000000     0.0487842  
H200     H      0.184940000000     0.511290000000     0.331660000000     0.037183   
H201     H      0.391220000000     0.477580000000     0.163240000000     0.051822   
H202     H      0.279530000000     0.445150000000     0.130950000000     0.0413154  
H203     H      0.330620000000     0.443550000000     0.183320000000     0.0411209  
H204     H      0.199090000000     0.536090000000     0.264680000000     0.0416875  
H205     H      0.131950000000     0.511950000000     0.280720000000     0.052798   
H206     H      0.304510000000     0.527300000000     0.097620000000     0.0412411  
H207     H      0.207420000000     0.550570000000     0.696930000000     0.0435008  
H208     H      0.256080000000     0.506640000000     0.837590000000     0.0388163  
H209     H      0.347080000000     0.503260000000     0.749210000000     0.0819861  
H210     H      0.103600000000     0.444400000000     0.663330000000     0.044392   
H211     H      0.311310000000     0.544510000000     0.864690000000     0.0557821  
H212     H      0.220980000000     0.479220000000     0.624910000000     0.0373637  
H213     H      0.132770000000     0.484160000000     0.715920000000     0.0369725  
H214     H      0.167760000000     0.487360000000     0.572530000000     0.0399291  
H215     H      0.398980000000     0.494350000000     0.802600000000    -0.00793137 
H216     H      0.259030000000     0.563060000000     0.747770000000     0.0564388  
H217     H      0.307310000000     0.498140000000     0.891480000000     0.0370817  
H218     H      0.220360000000     0.423350000000     0.715000000000     0.049002   
H219     H      0.286190000000     0.462130000000     0.832130000000     0.0397747  
H220     H      0.079170000000     0.492220000000     0.664030000000     0.0418488  
H221     H      0.191010000000     0.523770000000     0.630720000000     0.0380291  
H222     H      0.139940000000     0.526610000000     0.683330000000     0.0378607  
H223     H      0.272060000000     0.435820000000     0.765730000000     0.044523   
H224     H      0.339120000000     0.460250000000     0.780810000000     0.0552081  
H225     H      0.165360000000     0.440990000000     0.599520000000     0.0444429  
H226     H      0.720990000000     0.422150000000     0.754980000000     0.0495212  
H227     H      0.846690000000     0.503970000000     0.720520000000     0.0428898  
H228     H      0.755460000000     0.505850000000     0.632340000000     0.0819714  
H229     H      0.665920000000     0.438930000000     0.871020000000     0.0692241  
H230     H      0.872880000000     0.543210000000     0.665740000000     0.0880059  
H231     H      0.633220000000     0.481880000000     0.754770000000     0.0382233  
H232     H      0.721400000000     0.477670000000     0.845860000000     0.0415829  
H233     H      0.579510000000     0.489330000000     0.806520000000     0.0425212  
H234     H      0.806900000000     0.497680000000     0.578470000000    -0.00859032 
H235     H      0.772170000000     0.435340000000     0.703890000000     0.0419225  
H236     H      0.898780000000     0.496170000000     0.667260000000     0.0467564  
H237     H      0.707370000000     0.549140000000     0.774100000000     0.0464438  
H238     H      0.839240000000     0.460680000000     0.689090000000     0.0359555  
H239     H      0.668080000000     0.485190000000     0.898250000000     0.051194   
H240     H      0.639970000000     0.524420000000     0.787350000000     0.0411982  
H241     H      0.691090000000     0.521990000000     0.840100000000     0.0408426  
H242     H      0.758440000000     0.562350000000     0.722870000000     0.0602394  
H243     H      0.786270000000     0.461880000000     0.637720000000     0.0519069  
H244     H      0.604540000000     0.441830000000     0.807470000000     0.0448505  
H245     H      0.765770000000     0.747850000000     0.058080000000     0.0450881  
H246     H      0.723320000000     0.621070000000     0.984050000000     0.0392611  
H247     H      0.636300000000     0.713300000000     0.987190000000     0.082304   
H248     H      0.879320000000     0.802530000000     0.027660000000     0.03749    
H249     H      0.667320000000     0.593150000000     0.949040000000     0.0517343  
H250     H      0.757740000000     0.834700000000     0.999130000000     0.0407024  
H251     H      0.849910000000     0.747880000000     0.991350000000     0.0356594  
H252     H      0.807810000000     0.889240000000     0.986000000000     0.0531104  
H253     H      0.582730000000     0.661990000000     0.999940000000    -0.00977976 
H254     H      0.713970000000     0.696190000000     0.050770000000     0.041045   
H255     H      0.669350000000     0.569930000000     0.997360000000     0.0378501  
H256     H      0.770970000000     0.760760000000     0.929730000000     0.0478898  
H257     H      0.694580000000     0.629680000000     0.028920000000     0.0380152  
H258     H      0.900140000000     0.802340000000     0.978190000000     0.041222   
H259     H      0.785440000000     0.828880000000     0.953150000000     0.0531287  
H260     H      0.838510000000     0.778940000000     0.948680000000     0.0430571  
H261     H      0.719310000000     0.708990000000     0.922420000000     0.0577405  
H262     H      0.644490000000     0.682250000000     0.030520000000     0.0541561  
H263     H      0.813610000000     0.864390000000     0.033230000000     0.0365516  
H264     H      0.764040000000     0.195450000000     0.933710000000     0.0418433  
H265     H      0.621940000000     0.247330000000     0.976230000000     0.0400348  
H266     H      0.713750000000     0.334920000000     0.978040000000     0.0851899  
H267     H      0.803400000000     0.096340000000     0.042420000000     0.0393945  
H268     H      0.596620000000     0.302370000000     0.936960000000     0.0550701  
H269     H      0.835560000000     0.213910000000     0.004640000000     0.0397878  
H270     H      0.748530000000     0.121560000000     0.002630000000     0.0390002  
H271     H      0.890270000000     0.163210000000     0.997500000000     0.039088   
H272     H      0.662420000000     0.389020000000     0.985140000000     0.00236563 
H273     H      0.712740000000     0.246320000000     0.919980000000     0.0551078  
H274     H      0.570010000000     0.301220000000     0.983580000000     0.0392919  
H275     H      0.745600000000     0.211120000000     0.060500000000     0.0473051  
H276     H      0.628420000000     0.278300000000     0.019970000000     0.042696   
H277     H      0.802520000000     0.070070000000     0.995580000000     0.0396864  
H278     H      0.830790000000     0.182890000000     0.960700000000     0.0387496  
H279     H      0.780170000000     0.129120000000     0.959550000000     0.0385447  
H280     H      0.694260000000     0.261950000000     0.046760000000     0.0468321  
H281     H      0.681420000000     0.329250000000     0.020840000000     0.0684122  
H282     H      0.863180000000     0.159740000000     0.043730000000     0.039323   
H283     H      0.275970000000     0.709780000000     0.922740000000     0.0459836  
H284     H      0.135550000000     0.757280000000     0.967540000000     0.0385964  
H285     H      0.222720000000     0.849490000000     0.970190000000     0.0819647  
H286     H      0.310120000000     0.606730000000     0.029680000000     0.0412115  
H287     H      0.107310000000     0.811780000000     0.929550000000     0.05623    
H288     H      0.349030000000     0.723180000000     0.992510000000     0.0373913  
H289     H      0.257090000000     0.635770000000     0.990420000000     0.035769   
H290     H      0.400760000000     0.669220000000     0.983980000000     0.0436563  
H291     H      0.168610000000     0.900710000000     0.979120000000    -0.00825126 
H292     H      0.224640000000     0.760990000000     0.910470000000     0.0578291  
H293     H      0.081010000000     0.807960000000     0.976200000000     0.036485   
H294     H      0.259130000000     0.723390000000     0.049990000000     0.0466363  
H295     H      0.140840000000     0.787710000000     0.011830000000     0.0383377  
H296     H      0.308230000000     0.581560000000     0.982290000000     0.0419244  
H297     H      0.342100000000     0.692700000000     0.948500000000     0.0419782  
H298     H      0.289020000000     0.642040000000     0.947340000000     0.041561   
H299     H      0.207850000000     0.774640000000     0.037730000000     0.041401   
H300     H      0.191300000000     0.841270000000     0.013260000000     0.0543766  
H301     H      0.374730000000     0.667830000000     0.030920000000     0.0428616  
H302     H      0.213390000000     0.221610000000     0.050370000000     0.0524941  
H303     H      0.247620000000     0.349820000000     0.972590000000     0.0393567  
H304     H      0.334760000000     0.257730000000     0.966510000000     0.0871957  
H305     H      0.097740000000     0.166330000000     0.032620000000     0.067725   
H306     H      0.301750000000     0.377050000000     0.933360000000     0.0522621  
H307     H      0.214360000000     0.135690000000     0.988520000000     0.0392784  
H308     H      0.122240000000     0.222700000000     0.994920000000     0.0409387  
H309     H      0.163130000000     0.081530000000     0.980010000000     0.0441512  
H310     H      0.389260000000     0.308360000000     0.975300000000     0.00467517 
H311     H      0.264140000000     0.273390000000     0.038270000000     0.0484393  
H312     H      0.301760000000     0.401050000000     0.981410000000     0.037024   
H313     H      0.193620000000     0.211250000000     0.923230000000     0.0461887  
H314     H      0.279750000000     0.340660000000     0.015010000000     0.0440478  
H315     H      0.070510000000     0.168880000000     0.986410000000     0.0512999  
H316     H      0.181450000000     0.142970000000     0.946340000000     0.0425533  
H317     H      0.128200000000     0.193280000000     0.950030000000     0.0415112  
H318     H      0.244450000000     0.262970000000     0.911110000000     0.0567862  
H319     H      0.330410000000     0.287430000000     0.011350000000     0.0710039  
H320     H      0.162400000000     0.105340000000     0.028130000000     0.0453483  
H321     H      0.706040000000     0.061960000000     0.728360000000     0.0451323  
H322     H      0.832140000000     0.983240000000     0.759300000000     0.039664   
H323     H      0.745910000000     0.979770000000     0.852250000000     0.0816337  
H324     H      0.656460000000     0.043170000000     0.610490000000     0.0381574  
H325     H      0.862520000000     0.944040000000     0.811530000000     0.0562256  
H326     H      0.618140000000     0.001660000000     0.725060000000     0.0402706  
H327     H      0.711110000000     0.005370000000     0.638820000000     0.0394886  
H328     H      0.567350000000     0.992700000000     0.670450000000     0.0397826  
H329     H      0.800600000000     0.988740000000     0.903230000000    -0.0102372  
H330     H      0.757480000000     0.049940000000     0.779510000000     0.0410115  
H331     H      0.886860000000     0.991860000000     0.809930000000     0.0382205  
H332     H      0.694010000000     0.934620000000     0.710570000000     0.0455083  
H333     H      0.825730000000     0.026050000000     0.791560000000     0.0379293  
H334     H      0.661120000000     0.996830000000     0.583760000000     0.04014    
H335     H      0.627090000000     0.958590000000     0.693750000000     0.0422196  
H336     H      0.681000000000     0.960790000000     0.643560000000     0.0425705  
H337     H      0.745510000000     0.922610000000     0.761630000000     0.0570694  
H338     H      0.776040000000     0.023960000000     0.845270000000     0.0531873  
H339     H      0.592050000000     0.040420000000     0.669940000000     0.0386475  
H340     H      0.245260000000     0.061330000000     0.703080000000     0.0525112  
H341     H      0.211540000000     0.988120000000     0.831880000000     0.0454002  
H342     H      0.117990000000     0.988920000000     0.746300000000     0.0874403  
H343     H      0.361430000000     0.036510000000     0.655170000000     0.0656181  
H344     H      0.158360000000     0.952300000000     0.863970000000     0.0790282  
H345     H      0.245460000000     0.995270000000     0.617790000000     0.0423883  
H346     H      0.331420000000     0.002090000000     0.710790000000     0.0459396  
H347     H      0.300390000000     0.981900000000     0.567980000000     0.0556611  
H348     H      0.068120000000     0.001780000000     0.801550000000     0.00966728 
H349     H      0.193960000000     0.053840000000     0.755210000000     0.0481223  
H350     H      0.161380000000     0.000830000000     0.886680000000     0.0485592  
H351     H      0.257040000000     0.932890000000     0.696270000000     0.0511171  
H352     H      0.181450000000     0.032400000000     0.824980000000     0.0439646  
H353     H      0.386360000000     0.989340000000     0.661310000000     0.0504101  
H354     H      0.276060000000     0.952280000000     0.629270000000     0.0550549  
H355     H      0.325710000000     0.956270000000     0.682780000000     0.0477921  
H356     H      0.205580000000     0.925400000000     0.748200000000     0.0623306  
H357     H      0.127760000000     0.032750000000     0.776180000000     0.0687112  
H358     H      0.300690000000     0.031300000000     0.589020000000     0.0444498  
H359     H      0.226770000000     0.909190000000     0.204640000000     0.04523    
H360     H      0.259630000000     0.986460000000     0.331370000000     0.0379289  
H361     H      0.353010000000     0.985200000000     0.245550000000     0.0813513  
H362     H      0.110090000000     0.931000000000     0.155730000000     0.038399   
H363     H      0.313040000000     0.023590000000     0.361980000000     0.0559226  
H364     H      0.225020000000     0.972840000000     0.117930000000     0.0381221  
H365     H      0.139270000000     0.966680000000     0.211230000000     0.0361971  
H366     H      0.170210000000     0.984180000000     0.067890000000     0.0421307  
H367     H      0.403220000000     0.974060000000     0.300670000000    -0.010025   
H368     H      0.278250000000     0.918900000000     0.256190000000     0.0408086  
H369     H      0.309690000000     0.975840000000     0.386300000000     0.0368185  
H370     H      0.212350000000     0.037180000000     0.194990000000     0.0453428  
H371     H      0.290130000000     0.942300000000     0.325340000000     0.0357357  
H372     H      0.084060000000     0.977600000000     0.161830000000     0.0402814  
H373     H      0.194040000000     0.015800000000     0.128530000000     0.0427536  
H374     H      0.144290000000     0.012190000000     0.182560000000     0.0426921  
H375     H      0.264010000000     0.046890000000     0.246340000000     0.0563428  
H376     H      0.343910000000     0.941660000000     0.276070000000     0.0515864  
H377     H      0.169650000000     0.935520000000     0.090650000000     0.0397085  
H378     H      0.764980000000     0.909230000000     0.227250000000     0.0453701  
H379     H      0.639290000000     0.987260000000     0.259600000000     0.0382931  
H380     H      0.725370000000     0.988800000000     0.352740000000     0.0809978  
H381     H      0.813810000000     0.930420000000     0.109510000000     0.0372016  
H382     H      0.608780000000     0.025630000000     0.312240000000     0.0571561  
H383     H      0.852560000000     0.969680000000     0.225030000000     0.0362254  
H384     H      0.759460000000     0.967720000000     0.138870000000     0.036422   
H385     H      0.903230000000     0.979550000000     0.170560000000     0.0391459  
H386     H      0.670480000000     0.978940000000     0.403420000000    -0.00850519 
H387     H      0.713770000000     0.920260000000     0.278830000000     0.0413634  
H388     H      0.584510000000     0.977800000000     0.309990000000     0.0379225  
H389     H      0.776840000000     0.036910000000     0.211790000000     0.0430975  
H390     H      0.645520000000     0.943910000000     0.291190000000     0.0365401  
H391     H      0.809460000000     0.977450000000     0.083940000000     0.0413053  
H392     H      0.843630000000     0.013290000000     0.194440000000     0.0403669  
H393     H      0.789680000000     0.012130000000     0.144430000000     0.040598   
H394     H      0.725560000000     0.047930000000     0.263270000000     0.0567715  
H395     H      0.695050000000     0.944880000000     0.344880000000     0.0524342  
H396     H      0.878550000000     0.931830000000     0.169330000000     0.0368504  
H397     H      0.912960000000     0.268010000000     0.727020000000     0.0456612  
H398     H      0.988120000000     0.225670000000     0.853910000000     0.0381589  
H399     H      0.986970000000     0.140000000000     0.760370000000     0.0826819  
H400     H      0.940790000000     0.382090000000     0.670690000000     0.0368743  
H401     H      0.024010000000     0.169450000000     0.880710000000     0.0563145  
H402     H      0.971950000000     0.260690000000     0.640590000000     0.0411166  
H403     H      0.977590000000     0.354330000000     0.725990000000     0.0367173  
H404     H      0.983770000000     0.310090000000     0.585340000000     0.0534247  
H405     H      0.974990000000     0.085350000000     0.810610000000    -0.00760153 
H406     H      0.921440000000     0.216090000000     0.778390000000     0.0412027  
H407     H      0.975780000000     0.170810000000     0.904180000000     0.0362415  
H408     H      0.041160000000     0.276530000000     0.714470000000     0.0479728  
H409     H      0.943730000000     0.196380000000     0.844690000000     0.0357667  
H410     H      0.989760000000     0.404100000000     0.670770000000     0.0416768  
H411     H      0.017320000000     0.289450000000     0.645990000000     0.0544435  
H412     H      0.020610000000     0.343400000000     0.695270000000     0.0443188  
H413     H      0.049640000000     0.224690000000     0.765910000000     0.0575293  
H414     H      0.943250000000     0.146920000000     0.791150000000     0.0523019  
H415     H      0.936600000000     0.315590000000     0.610340000000     0.0368745  
H416     H      0.053620000000     0.768320000000     0.745170000000     0.0529511  
H417     H      0.980680000000     0.726000000000     0.617170000000     0.0404957  
H418     H      0.980000000000     0.640320000000     0.710700000000     0.0823444  
H419     H      0.024440000000     0.882210000000     0.800980000000     0.0765437  
H420     H      0.945290000000     0.669820000000     0.589660000000     0.0583953  
H421     H      0.994020000000     0.760260000000     0.830890000000     0.0373823  
H422     H      0.987970000000     0.854110000000     0.745790000000     0.0425409  
H423     H      0.981470000000     0.809580000000     0.886260000000     0.0422697  
H424     H      0.992700000000     0.585660000000     0.660750000000    -0.0103667  
H425     H      0.045970000000     0.716620000000     0.693470000000     0.0431375  
H426     H      0.993980000000     0.671110000000     0.567130000000     0.0362214  
H427     H      0.925250000000     0.776010000000     0.756500000000     0.0461654  
H428     H      0.024870000000     0.696670000000     0.627190000000     0.0386198  
H429     H      0.975200000000     0.903560000000     0.801220000000     0.0538222  
H430     H      0.948530000000     0.788800000000     0.825400000000     0.0411217  
H431     H      0.945030000000     0.842760000000     0.776460000000     0.0409109  
H432     H      0.917590000000     0.724470000000     0.704640000000     0.0590392  
H433     H      0.024290000000     0.647170000000     0.680720000000     0.054377   
H434     H      0.028910000000     0.814980000000     0.861750000000     0.0487275  
H435     H      0.936810000000     0.759220000000     0.192720000000     0.0429047  
H436     H      0.983530000000     0.617940000000     0.245020000000     0.0384094  
H437     H      0.984700000000     0.711360000000     0.330850000000     0.0808142  
H438     H      0.042310000000     0.801670000000     0.091840000000     0.0380352  
H439     H      0.945160000000     0.592410000000     0.300320000000     0.0517129  
H440     H      0.007330000000     0.831550000000     0.210940000000     0.0381298  
H441     H      0.003940000000     0.745920000000     0.117320000000     0.0376751  
H442     H      0.998220000000     0.886950000000     0.161440000000     0.0371325  
H443     H      0.993310000000     0.660910000000     0.385720000000    -0.00935115 
H444     H      0.924990000000     0.707820000000     0.243920000000     0.0542507  
H445     H      0.992540000000     0.567170000000     0.299990000000     0.0371585  
H446     H      0.064210000000     0.743050000000     0.205900000000     0.0455715  
H447     H      0.027320000000     0.625780000000     0.275590000000     0.0383338  
H448     H      0.994700000000     0.800730000000     0.066970000000     0.0371626  
H449     H      0.962660000000     0.826730000000     0.180980000000     0.038817   
H450     H      0.960680000000     0.776910000000     0.126530000000     0.0382407  
H451     H      0.052380000000     0.691640000000     0.257130000000     0.0405046  
H452     H      0.027790000000     0.679400000000     0.325300000000     0.0543066  
H453     H      0.044680000000     0.860500000000     0.156300000000     0.0374696  
H454     H      0.910920000000     0.242240000000     0.265450000000     0.0468497  
H455     H      0.993610000000     0.118400000000     0.225940000000     0.0379112  
H456     H      0.990300000000     0.211740000000     0.140050000000     0.0817221  
H457     H      0.931930000000     0.300760000000     0.379590000000     0.0396197  
H458     H      0.031870000000     0.093790000000     0.170030000000     0.0545338  
H459     H      0.967200000000     0.331310000000     0.260590000000     0.0414189  
H460     H      0.970930000000     0.245520000000     0.354030000000     0.0372308  
H461     H      0.975470000000     0.386670000000     0.310240000000     0.0507494  
H462     H      0.981860000000     0.161220000000     0.085270000000    -0.00799847 
H463     H      0.923290000000     0.191220000000     0.213970000000     0.0421908  
H464     H      0.985100000000     0.067440000000     0.171270000000     0.0364862  
H465     H      0.038140000000     0.259710000000     0.278690000000     0.0480868  
H466     H      0.949380000000     0.125520000000     0.195820000000     0.0372095  
H467     H      0.979490000000     0.300380000000     0.404550000000     0.0417732  
H468     H      0.011720000000     0.326850000000     0.290820000000     0.0542058  
H469     H      0.013920000000     0.276950000000     0.345070000000     0.0438649  
H470     H      0.050500000000     0.208750000000     0.227170000000     0.0572439  
H471     H      0.947630000000     0.179290000000     0.146020000000     0.053574   
H472     H      0.929240000000     0.359780000000     0.315020000000     0.0395455  
N1       N      0.470050000000     0.348470000000     0.109500000000    -0.192147   
N2       N      0.464550000000     0.286340000000     0.166840000000    -0.0880703  
N3       N      0.496400000000     0.168300000000     0.286180000000    -0.111133   
N4       N      0.492110000000     0.110890000000     0.348230000000    -0.158919   
N5       N      0.484190000000     0.610590000000     0.122060000000    -0.192775   
N6       N      0.479200000000     0.668020000000     0.184070000000    -0.0890808  
N7       N      0.507980000000     0.786590000000     0.303770000000    -0.113434   
N8       N      0.501330000000     0.848740000000     0.361020000000    -0.166041   
N9       N      0.474700000000     0.860820000000     0.622140000000    -0.189688   
N10      N      0.469530000000     0.803210000000     0.683970000000    -0.0868855  
N11      N      0.501350000000     0.684880000000     0.802980000000    -0.111052   
N12      N      0.496630000000     0.622570000000     0.860100000000    -0.159955   
N13      N      0.471400000000     0.123130000000     0.609690000000    -0.193517   
N14      N      0.465830000000     0.185240000000     0.666760000000    -0.0882662  
N15      N      0.497000000000     0.303310000000     0.785910000000    -0.112194   
N16      N      0.491800000000     0.360480000000     0.847920000000    -0.162792   
N17      N      0.613070000000     0.120410000000     0.481010000000    -0.190602   
N18      N      0.671270000000     0.181400000000     0.475790000000    -0.0875365  
N19      N      0.788630000000     0.301610000000     0.505620000000    -0.113389   
N20      N      0.849840000000     0.359560000000     0.499470000000    -0.166589   
N21      N      0.619780000000     0.858560000000     0.501840000000    -0.192745   
N22      N      0.681190000000     0.800420000000     0.506580000000    -0.0882403  
N23      N      0.800220000000     0.682410000000     0.473360000000    -0.111384   
N24      N      0.858530000000     0.621150000000     0.477260000000    -0.159539   
N25      N      0.112210000000     0.350260000000     0.495790000000    -0.191899   
N26      N      0.170750000000     0.289000000000     0.499020000000    -0.0882104  
N27      N      0.289480000000     0.171220000000     0.463220000000    -0.112282   
N28      N      0.350980000000     0.112960000000     0.467130000000    -0.163885   
N29      N      0.357540000000     0.851370000000     0.491890000000    -0.1897     
N30      N      0.299180000000     0.790210000000     0.496500000000    -0.0869985  
N31      N      0.182290000000     0.669770000000     0.464550000000    -0.113254   
N32      N      0.120840000000     0.611720000000     0.469890000000    -0.16645    
N33      N      0.613420000000     0.470000000000     0.118570000000    -0.193327   
N34      N      0.671970000000     0.463430000000     0.179220000000    -0.0886505  
N35      N      0.791300000000     0.492520000000     0.297720000000    -0.112707   
N36      N      0.851790000000     0.487500000000     0.356500000000    -0.165237   
N37      N      0.113630000000     0.469500000000     0.352040000000    -0.19306    
N38      N      0.172160000000     0.463190000000     0.291250000000    -0.0884927  
N39      N      0.291060000000     0.492760000000     0.172280000000    -0.111977   
N40      N      0.351530000000     0.487880000000     0.113360000000    -0.162344   
N41      N      0.357740000000     0.503530000000     0.851340000000    -0.192495   
N42      N      0.299050000000     0.509270000000     0.790630000000    -0.0881551  
N43      N      0.179390000000     0.477140000000     0.673110000000    -0.112386   
N44      N      0.118830000000     0.481370000000     0.614220000000    -0.165081   
N45      N      0.857190000000     0.504150000000     0.618400000000    -0.189148   
N46      N      0.798460000000     0.509150000000     0.679240000000    -0.0870795  
N47      N      0.679940000000     0.475360000000     0.797590000000    -0.111569   
N48      N      0.619230000000     0.479180000000     0.856470000000    -0.161717   
N49      N      0.621060000000     0.611620000000     0.988170000000    -0.194185   
N50      N      0.681920000000     0.669350000000     0.980200000000    -0.0879398  
N51      N      0.801900000000     0.788760000000     0.000340000000    -0.110719   
N52      N      0.858930000000     0.850240000000     0.991320000000    -0.16504    
N53      N      0.612080000000     0.349660000000     0.976170000000    -0.190689   
N54      N      0.670520000000     0.288390000000     0.972720000000    -0.0875717  
N55      N      0.789140000000     0.170370000000     0.007770000000    -0.110117   
N56      N      0.850790000000     0.112340000000     0.003590000000    -0.165891   
N57      N      0.120420000000     0.858830000000     0.969900000000    -0.192501   
N58      N      0.181890000000     0.800900000000     0.964420000000    -0.0874252  
N59      N      0.300470000000     0.682090000000     0.996040000000    -0.112864   
N60      N      0.358690000000     0.620850000000     0.991580000000    -0.164199   
N61      N      0.349830000000     0.359250000000     0.970540000000    -0.191354   
N62      N      0.288390000000     0.301440000000     0.965060000000    -0.0872561  
N63      N      0.170930000000     0.181670000000     0.996340000000    -0.111567   
N64      N      0.112890000000     0.120430000000     0.991660000000    -0.161728   
N65      N      0.848420000000     0.981340000000     0.860750000000    -0.192896   
N66      N      0.786420000000     0.976780000000     0.803190000000    -0.0879059  
N67      N      0.667110000000     0.007850000000     0.684810000000    -0.109694   
N68      N      0.609750000000     0.002170000000     0.622670000000    -0.165358   
N69      N      0.110200000000     0.990600000000     0.848880000000    -0.187104   
N70      N      0.166820000000     0.983080000000     0.786780000000    -0.0861557  
N71      N      0.285860000000     0.003670000000     0.666310000000    -0.107912   
N72      N      0.347910000000     0.994510000000     0.609720000000    -0.160838   
N73      N      0.360940000000     0.984530000000     0.348060000000    -0.193505   
N74      N      0.304110000000     0.990900000000     0.285970000000    -0.0888711  
N75      N      0.184870000000     0.965160000000     0.166780000000    -0.112475   
N76      N      0.122650000000     0.973210000000     0.110200000000    -0.16616    
N77      N      0.622880000000     0.987700000000     0.360980000000    -0.192285   
N78      N      0.684850000000     0.992940000000     0.303770000000    -0.0885808  
N79      N      0.803600000000     0.964190000000     0.184650000000    -0.112723   
N80      N      0.860760000000     0.970830000000     0.122690000000    -0.166718   
N81      N      0.985140000000     0.123150000000     0.861750000000    -0.19311    
N82      N      0.992710000000     0.185220000000     0.804920000000    -0.0885513  
N83      N      0.969830000000     0.305420000000     0.685930000000    -0.112291   
N84      N      0.977850000000     0.361830000000     0.623500000000    -0.164151   
N85      N      0.983740000000     0.623500000000     0.609410000000    -0.193109   
N86      N      0.975140000000     0.685540000000     0.666050000000    -0.0868173  
N87      N      0.996130000000     0.805220000000     0.785780000000    -0.11104    
N88      N      0.987900000000     0.861350000000     0.848310000000    -0.16059    
N89      N      0.983620000000     0.609910000000     0.347490000000    -0.193479   
N90      N      0.979290000000     0.667080000000     0.285330000000    -0.0879857  
N91      N      0.009910000000     0.785880000000     0.166560000000    -0.111499   
N92      N      0.003440000000     0.848350000000     0.109800000000    -0.166487   
N93      N      0.992170000000     0.110310000000     0.123530000000    -0.192908   
N94      N      0.996620000000     0.167610000000     0.185600000000    -0.0885525  
N95      N      0.964760000000     0.285540000000     0.304880000000    -0.112063   
N96      N      0.970250000000     0.347950000000     0.361790000000    -0.164389   
O1       O      0.986480000000     0.095560000000     0.056970000000    -0.367706   
O2       O      0.995340000000     0.869060000000     0.045060000000    -0.376746   
O3       O      0.925850000000     0.976850000000     0.102340000000    -0.379245   
O4       O      0.055970000000     0.978530000000     0.095970000000    -0.374676   
O5       O      0.101970000000     0.981710000000     0.045530000000    -0.375097   
O6       O      0.875400000000     0.977730000000     0.056210000000    -0.374795   
O7       O      0.995550000000     0.914900000000     0.095750000000    -0.376065   
O8       O      0.990090000000     0.045000000000     0.102860000000    -0.380148   
O9       O      0.028970000000     0.944490000000     0.022460000000    -0.50578    
O10      O      0.945740000000     0.022780000000     0.030550000000    -0.506788   
O11      O      0.948270000000     0.941780000000     0.026320000000    -0.652036   
O12      O      0.026880000000     0.025220000000     0.026890000000    -0.651151   
O13      O      0.986430000000     0.875580000000     0.915210000000    -0.374926   
O14      O      0.982590000000     0.102310000000     0.926940000000    -0.379355   
O15      O      0.874380000000     0.916870000000     0.989420000000    -0.368766   
O16      O      0.100840000000     0.924100000000     0.976670000000    -0.366792   
O17      O      0.097040000000     0.054090000000     0.985670000000    -0.376191   
O18      O      0.870330000000     0.047060000000     0.996350000000    -0.37599    
O19      O      0.915020000000     0.986820000000     0.875760000000    -0.379256   
O20      O      0.045030000000     0.991680000000     0.869740000000    -0.354798   
O21      O      0.868960000000     0.982920000000     0.926120000000    -0.367188   
O22      O      0.095630000000     0.991480000000     0.915730000000    -0.372143   
O23      O      0.924060000000     0.870080000000     0.984910000000    -0.379308   
O24      O      0.917190000000     0.096850000000     0.996670000000    -0.377216   
O25      O      0.047350000000     0.100850000000     0.990240000000    -0.366015   
O26      O      0.054020000000     0.874300000000     0.976350000000    -0.377086   
O27      O      0.983200000000     0.926290000000     0.869450000000    -0.364741   
O28      O      0.981630000000     0.056360000000     0.876300000000    -0.367215   
O29      O      0.022880000000     0.029310000000     0.945910000000    -0.503927   
O30      O      0.944230000000     0.945690000000     0.945400000000    -0.505502   
O31      O      0.941620000000     0.027190000000     0.949320000000    -0.652835   
O32      O      0.025110000000     0.948510000000     0.941830000000    -0.657372   
O33      O      0.977350000000     0.368750000000     0.426650000000    -0.376776   
O34      O      0.986890000000     0.595350000000     0.414240000000    -0.368516   
O35      O      0.918020000000     0.483240000000     0.373180000000    -0.374404   
O36      O      0.048110000000     0.476020000000     0.370830000000    -0.369381   
O37      O      0.097380000000     0.476410000000     0.418220000000    -0.379701   
O38      O      0.870590000000     0.486630000000     0.422290000000    -0.376378   
O39      O      0.985180000000     0.544630000000     0.368390000000    -0.377914   
O40      O      0.977220000000     0.414570000000     0.375920000000    -0.370551   
O41      O      0.026450000000     0.522480000000     0.441930000000    -0.508954   
O42      O      0.942520000000     0.444380000000     0.447800000000    -0.50813    
O43      O      0.945590000000     0.525280000000     0.443560000000    -0.656272   
O44      O      0.023690000000     0.441260000000     0.446270000000    -0.652645   
O45      O      0.987540000000     0.602580000000     0.544320000000    -0.378876   
O46      O      0.981300000000     0.375970000000     0.556660000000    -0.369373   
O47      O      0.874240000000     0.554760000000     0.482880000000    -0.367551   
O48      O      0.101110000000     0.546540000000     0.477670000000    -0.378063   
O49      O      0.096420000000     0.416580000000     0.489140000000    -0.375888   
O50      O      0.869500000000     0.424750000000     0.492050000000    -0.378877   
O51      O      0.922630000000     0.496320000000     0.599760000000    -0.368123   
O52      O      0.052660000000     0.486860000000     0.597530000000    -0.375794   
O53      O      0.873430000000     0.496370000000     0.552330000000    -0.368084   
O54      O      0.100060000000     0.483210000000     0.548400000000    -0.375327   
O55      O      0.924130000000     0.601420000000     0.479750000000    -0.363959   
O56      O      0.916250000000     0.374900000000     0.494090000000    -0.376413   
O57      O      0.046580000000     0.369870000000     0.492290000000    -0.366057   
O58      O      0.054400000000     0.596430000000     0.475850000000    -0.377731   
O59      O      0.987300000000     0.556720000000     0.595030000000    -0.367629   
O60      O      0.983460000000     0.426770000000     0.602390000000    -0.376067   
O61      O      0.025130000000     0.445970000000     0.527160000000    -0.505553   
O62      O      0.947190000000     0.529550000000     0.524190000000    -0.503464   
O63      O      0.944130000000     0.448890000000     0.528800000000    -0.654503   
O64      O      0.028450000000     0.527160000000     0.523220000000    -0.650658   
O65      O      0.602140000000     0.986350000000     0.426230000000    -0.365776   
O66      O      0.375460000000     0.982160000000     0.414840000000    -0.380598   
O67      O      0.495030000000     0.915390000000     0.375530000000    -0.378389   
O68      O      0.490110000000     0.045550000000     0.368900000000    -0.363218   
O69      O      0.486690000000     0.096090000000     0.414830000000    -0.366635   
O70      O      0.493630000000     0.869260000000     0.425970000000    -0.37633    
O71      O      0.426080000000     0.981640000000     0.368900000000    -0.368825   
O72      O      0.556200000000     0.983680000000     0.375670000000    -0.378547   
O73      O      0.446030000000     0.023180000000     0.441150000000    -0.505122   
O74      O      0.529050000000     0.944590000000     0.449020000000    -0.511106   
O75      O      0.447660000000     0.941930000000     0.444650000000    -0.653061   
O76      O      0.526690000000     0.025370000000     0.445280000000    -0.65609    
O77      O      0.368670000000     0.987800000000     0.544810000000    -0.367798   
O78      O      0.595250000000     0.995150000000     0.556120000000    -0.375589   
O79      O      0.423210000000     0.870660000000     0.489510000000    -0.370525   
O80      O      0.417340000000     0.097300000000     0.474080000000    -0.372794   
O81      O      0.547470000000     0.101060000000     0.482480000000    -0.368399   
O82      O      0.553410000000     0.874340000000     0.495590000000    -0.368615   
O83      O      0.478710000000     0.926190000000     0.601820000000    -0.376041   
O84      O      0.477010000000     0.056500000000     0.595230000000    -0.368998   
O85      O      0.482090000000     0.875740000000     0.555780000000    -0.35946    
O86      O      0.478270000000     0.102580000000     0.544750000000    -0.380645   
O87      O      0.373690000000     0.917660000000     0.485590000000    -0.368451   
O88      O      0.600460000000     0.923950000000     0.495120000000    -0.379476   
O89      O      0.597000000000     0.054100000000     0.486630000000    -0.370267   
O90      O      0.370330000000     0.047670000000     0.474830000000    -0.370945   
O91      O      0.414670000000     0.991130000000     0.595290000000    -0.366979   
O92      O      0.544720000000     0.995170000000     0.602130000000    -0.376719   
O93      O      0.522840000000     0.029660000000     0.525990000000    -0.508651   
O94      O      0.444170000000     0.946400000000     0.525720000000    -0.504138   
O95      O      0.524960000000     0.948270000000     0.530190000000    -0.655101   
O96      O      0.441830000000     0.027230000000     0.521830000000    -0.654823   
O97      O      0.416290000000     0.374510000000     0.975870000000    -0.364112   
O98      O      0.424260000000     0.601120000000     0.989020000000    -0.373384   
O99      O      0.370460000000     0.486630000000     0.047530000000    -0.373653   
O100     O      0.373800000000     0.495810000000     0.917430000000    -0.377714   
O101     O      0.423100000000     0.495450000000     0.870100000000    -0.36981    
O102     O      0.417790000000     0.483750000000     0.096790000000    -0.367003   
O103     O      0.374380000000     0.554420000000     0.986550000000    -0.374727   
O104     O      0.369590000000     0.424410000000     0.977960000000    -0.380528   
O105     O      0.447230000000     0.529260000000     0.945390000000    -0.506157   
O106     O      0.442510000000     0.444420000000     0.022580000000    -0.505821   
O107     O      0.445600000000     0.525200000000     0.026210000000    -0.655859   
O108     O      0.444280000000     0.448060000000     0.941230000000    -0.654271   
O109     O      0.554560000000     0.596050000000     0.990550000000    -0.36878    
O110     O      0.546470000000     0.369300000000     0.979710000000    -0.375701   
O111     O      0.485100000000     0.545210000000     0.101430000000    -0.366425   
O112     O      0.492010000000     0.555810000000     0.874680000000    -0.370036   
O113     O      0.487950000000     0.425700000000     0.868400000000    -0.374917   
O114     O      0.477050000000     0.415030000000     0.094920000000    -0.376644   
O115     O      0.597240000000     0.476810000000     0.052440000000    -0.370507   
O116     O      0.600280000000     0.481400000000     0.922270000000    -0.364931   
O117     O      0.547900000000     0.476440000000     0.099750000000    -0.3806     
O118     O      0.553090000000     0.485450000000     0.872980000000    -0.372837   
O119     O      0.487670000000     0.595650000000     0.055320000000    -0.378234   
O120     O      0.477080000000     0.368870000000     0.044490000000    -0.367032   
O121     O      0.486200000000     0.375210000000     0.914470000000    -0.366803   
O122     O      0.491130000000     0.601900000000     0.925170000000    -0.366288   
O123     O      0.601240000000     0.546090000000     0.989000000000    -0.381043   
O124     O      0.596320000000     0.416020000000     0.982020000000    -0.361207   
O125     O      0.525010000000     0.445580000000     0.943730000000    -0.50851    
O126     O      0.526650000000     0.522620000000     0.028380000000    -0.509654   
O127     O      0.523600000000     0.441080000000     0.024520000000    -0.655274   
O128     O      0.528410000000     0.526110000000     0.947170000000    -0.656414   
Zr1      Zr     0.989340000000     0.981540000000     0.066590000000     1.42486    
Zr2      Zr     0.987980000000     0.905000000000     0.981950000000     1.42901    
Zr3      Zr     0.983200000000     0.066080000000     0.990310000000     1.42596    
Zr4      Zr     0.905010000000     0.983080000000     0.989720000000     1.424      
Zr5      Zr     0.066080000000     0.988060000000     0.982360000000     1.43513    
Zr6      Zr     0.981570000000     0.989600000000     0.905700000000     1.43546    
Zr7      Zr     0.983730000000     0.481250000000     0.404850000000     1.43154    
Zr8      Zr     0.988190000000     0.566170000000     0.481050000000     1.43205    
Zr9      Zr     0.982470000000     0.405080000000     0.489790000000     1.43038    
Zr10     Zr     0.904690000000     0.488540000000     0.486790000000     1.43629    
Zr11     Zr     0.065950000000     0.482740000000     0.483860000000     1.42577    
Zr12     Zr     0.986980000000     0.489950000000     0.565850000000     1.43239    
Zr13     Zr     0.489450000000     0.981970000000     0.405020000000     1.43194    
Zr14     Zr     0.404860000000     0.983610000000     0.481490000000     1.4329     
Zr15     Zr     0.565930000000     0.988110000000     0.489640000000     1.43241    
Zr16     Zr     0.487490000000     0.905290000000     0.489300000000     1.43476    
Zr17     Zr     0.483240000000     0.066510000000     0.481470000000     1.43896    
Zr18     Zr     0.481410000000     0.989840000000     0.565940000000     1.43283    
Zr19     Zr     0.404840000000     0.488190000000     0.983040000000     1.42894    
Zr20     Zr     0.488300000000     0.565850000000     0.988640000000     1.43337    
Zr21     Zr     0.482470000000     0.404710000000     0.981060000000     1.43813    
Zr22     Zr     0.483640000000     0.481540000000     0.065450000000     1.43381    
Zr23     Zr     0.487280000000     0.489210000000     0.904310000000     1.43689    
Zr24     Zr     0.565960000000     0.482230000000     0.986760000000     1.43724    


