data_structure

_audit_creation_method RASPA-1.0
_audit_creation_date 2023-5-25
_audit_author_name 'Poobodin Mano'

_cell_length_a    33.4424
_cell_length_b    33.4035
_cell_length_c    33.4112
_cell_angle_alpha 90
_cell_angle_beta  90
_cell_angle_gamma 90
_cell_volume      37323.4

_symmetry_cell_setting          triclinic
_symmetry_space_group_name_Hall 'P 1'
_symmetry_space_group_name_H-M  'P 1'
_symmetry_Int_Tables_number     1

_symmetry_equiv_pos_as_xyz 'x,y,z'

loop_
_atom_site_label
_atom_site_type_symbol
_atom_site_fract_x
_atom_site_fract_y
_atom_site_fract_z
_atom_site_charge
C1       C      0.987580000000     0.083240000000     0.091280000000     0.370527   
C2       C      0.976230000000     0.879160000000     0.084890000000     0.352093   
C3       C      0.879290000000     0.983060000000     0.084190000000     0.354749   
C4       C      0.083170000000     0.974050000000     0.091590000000     0.368726   
C5       C      0.979530000000     0.886240000000     0.880430000000     0.37165    
C6       C      0.996000000000     0.089920000000     0.887040000000     0.36689    
C7       C      0.879250000000     0.886690000000     0.974860000000     0.354392   
C8       C      0.082710000000     0.877980000000     0.990370000000     0.372963   
C9       C      0.091420000000     0.082300000000     0.993810000000     0.355117   
C10      C      0.887400000000     0.090680000000     0.991790000000     0.373246   
C11      C      0.886960000000     0.994660000000     0.880140000000     0.370235   
C12      C      0.090450000000     0.980200000000     0.887110000000     0.369598   
C13      C      0.980680000000     0.380790000000     0.385750000000     0.355031   
C14      C      0.994470000000     0.584800000000     0.379300000000     0.371113   
C15      C      0.883040000000     0.486470000000     0.382520000000     0.35459    
C16      C      0.086900000000     0.485100000000     0.381810000000     0.371549   
C17      C      0.988460000000     0.591200000000     0.583710000000     0.352994   
C18      C      0.983510000000     0.386680000000     0.590110000000     0.351435   
C19      C      0.884720000000     0.589550000000     0.478880000000     0.370951   
C20      C      0.088210000000     0.587340000000     0.477280000000     0.372314   
C21      C      0.086540000000     0.382900000000     0.484100000000     0.370092   
C22      C      0.882030000000     0.385420000000     0.483770000000     0.370079   
C23      C      0.883710000000     0.495540000000     0.586490000000     0.371013   
C24      C      0.088020000000     0.489870000000     0.586120000000     0.370445   
C25      C      0.583230000000     0.987360000000     0.379880000000     0.369679   
C26      C      0.379060000000     0.990500000000     0.387400000000     0.355562   
C27      C      0.478740000000     0.883600000000     0.382880000000     0.353579   
C28      C      0.484520000000     0.088100000000     0.384080000000     0.370312   
C29      C      0.386810000000     0.987730000000     0.591780000000     0.353697   
C30      C      0.590890000000     0.982480000000     0.584170000000     0.353055   
C31      C      0.382430000000     0.883950000000     0.493180000000     0.355533   
C32      C      0.383530000000     0.088250000000     0.492170000000     0.354716   
C33      C      0.587450000000     0.087140000000     0.487090000000     0.354821   
C34      C      0.586410000000     0.882830000000     0.482590000000     0.355567   
C35      C      0.489500000000     0.882460000000     0.586960000000     0.355081   
C36      C      0.495630000000     0.086720000000     0.587720000000     0.358342   
C37      C      0.385800000000     0.379730000000     0.981540000000     0.368937   
C38      C      0.380490000000     0.584060000000     0.981740000000     0.354825   
C39      C      0.383180000000     0.477850000000     0.086320000000     0.356098   
C40      C      0.383720000000     0.480610000000     0.881930000000     0.353944   
C41      C      0.584610000000     0.589630000000     0.987880000000     0.368508   
C42      C      0.590190000000     0.385210000000     0.981550000000     0.354586   
C43      C      0.486360000000     0.586470000000     0.087040000000     0.370015   
C44      C      0.479090000000     0.586650000000     0.882430000000     0.372293   
C45      C      0.486360000000     0.382510000000     0.882200000000     0.371663   
C46      C      0.482230000000     0.382240000000     0.086190000000     0.356865   
C47      C      0.587180000000     0.482670000000     0.086540000000     0.369729   
C48      C      0.587840000000     0.484370000000     0.882420000000     0.355085   
C49      C      0.478210000000     0.188280000000     0.334710000000    -0.0286997  
C50      C      0.486460000000     0.282270000000     0.135890000000    -0.0233499  
C51      C      0.469710000000     0.365310000000     0.156940000000    -0.0384537  
C52      C      0.472120000000     0.311080000000     0.103370000000    -0.0386824  
C53      C      0.515270000000     0.253720000000     0.217710000000    -0.0570076  
C54      C      0.448750000000     0.216960000000     0.252810000000    -0.0569007  
C55      C      0.476480000000     0.264390000000     0.205240000000     0.0614371  
C56      C      0.484270000000     0.333880000000     0.186750000000    -0.023261   
C57      C      0.487540000000     0.206300000000     0.265230000000     0.0614414  
C58      C      0.479800000000     0.136720000000     0.283850000000    -0.0544452  
C59      C      0.520600000000     0.224880000000     0.247470000000    -0.0540497  
C60      C      0.495940000000     0.105270000000     0.313090000000     0.0789238  
C61      C      0.493150000000     0.159450000000     0.366970000000    -0.0203342  
C62      C      0.443410000000     0.245820000000     0.223020000000    -0.0546831  
C63      C      0.487910000000     0.117050000000     0.355150000000    -0.133033   
C64      C      0.477910000000     0.353400000000     0.115070000000    -0.0984195  
C65      C      0.480200000000     0.635690000000     0.187330000000    -0.0288978  
C66      C      0.483360000000     0.834510000000     0.282520000000    -0.0232311  
C67      C      0.468300000000     0.812460000000     0.365610000000    -0.038887   
C68      C      0.468160000000     0.866360000000     0.311720000000    -0.0389119  
C69      C      0.514700000000     0.753540000000     0.253170000000    -0.057011   
C70      C      0.449020000000     0.716820000000     0.216470000000    -0.0568033  
C71      C      0.475650000000     0.764860000000     0.264170000000     0.061033   
C72      C      0.483550000000     0.783310000000     0.333800000000    -0.0231046  
C73      C      0.488070000000     0.705420000000     0.205570000000     0.0609733  
C74      C      0.480850000000     0.686660000000     0.135870000000    -0.0547308  
C75      C      0.520710000000     0.724050000000     0.224110000000    -0.0539707  
C76      C      0.497400000000     0.657640000000     0.104330000000     0.0796686  
C77      C      0.495650000000     0.603720000000     0.158370000000    -0.0206206  
C78      C      0.443010000000     0.746290000000     0.245570000000    -0.0547374  
C79      C      0.489930000000     0.615440000000     0.116000000000    -0.133097   
C80      C      0.474820000000     0.854700000000     0.353930000000    -0.0981746  
C81      C      0.484190000000     0.635260000000     0.782360000000    -0.0290173  
C82      C      0.484040000000     0.833000000000     0.686760000000    -0.0231224  
C83      C      0.499210000000     0.811110000000     0.603640000000    -0.0386919  
C84      C      0.500000000000     0.864650000000     0.657880000000    -0.0385103  
C85      C      0.522760000000     0.744870000000     0.724170000000    -0.0549048  
C86      C      0.444550000000     0.723320000000     0.744520000000    -0.0540789  
C87      C      0.490530000000     0.763350000000     0.704820000000     0.0613994  
C88      C      0.483390000000     0.782020000000     0.635190000000    -0.0231267  
C89      C      0.476780000000     0.704770000000     0.763780000000     0.0611392  
C90      C      0.482700000000     0.686540000000     0.833660000000    -0.0549496  
C91      C      0.516080000000     0.715820000000     0.753470000000    -0.0568013  
C92      C      0.466030000000     0.657480000000     0.865070000000     0.0800444  
C93      C      0.468400000000     0.603500000000     0.811240000000    -0.0199362  
C94      C      0.451220000000     0.752430000000     0.715280000000    -0.0571434  
C95      C      0.474220000000     0.615410000000     0.853520000000    -0.134309   
C96      C      0.493150000000     0.853310000000     0.615630000000    -0.0984479  
C97      C      0.496480000000     0.282830000000     0.833170000000    -0.0290025  
C98      C      0.493730000000     0.186490000000     0.636240000000    -0.023493   
C99      C      0.511150000000     0.103800000000     0.658000000000    -0.0384672  
C100     C      0.508900000000     0.157540000000     0.604320000000    -0.0382013  
C101     C      0.462560000000     0.214560000000     0.717340000000    -0.0570353  
C102     C      0.527360000000     0.254670000000     0.751960000000    -0.0570046  
C103     C      0.501820000000     0.205050000000     0.705470000000     0.0615384  
C104     C      0.495990000000     0.135150000000     0.687630000000    -0.0234577  
C105     C      0.488100000000     0.264020000000     0.763920000000     0.0616273  
C106     C      0.492750000000     0.334050000000     0.782040000000    -0.0545499  
C107     C      0.455900000000     0.243820000000     0.746390000000    -0.0543148  
C108     C      0.475330000000     0.364950000000     0.811190000000     0.0791906  
C109     C      0.479930000000     0.310960000000     0.865130000000    -0.019363   
C110     C      0.534030000000     0.225340000000     0.722940000000    -0.0547411  
C111     C      0.483660000000     0.353510000000     0.853280000000    -0.134419   
C112     C      0.502230000000     0.115430000000     0.616250000000    -0.0990803  
C113     C      0.781630000000     0.336370000000     0.490210000000    -0.0289396  
C114     C      0.687410000000     0.137080000000     0.480750000000    -0.0235147  
C115     C      0.604640000000     0.158030000000     0.498580000000    -0.0385627  
C116     C      0.658800000000     0.104390000000     0.495220000000    -0.0389854  
C117     C      0.715860000000     0.219330000000     0.452450000000    -0.0570412  
C118     C      0.752830000000     0.254090000000     0.519090000000    -0.0568376  
C119     C      0.705450000000     0.206470000000     0.491220000000     0.0612148  
C120     C      0.635940000000     0.187890000000     0.483790000000    -0.023413   
C121     C      0.763240000000     0.266900000000     0.480320000000     0.061069   
C122     C      0.832900000000     0.285340000000     0.487640000000    -0.0548509  
C123     C      0.744550000000     0.249280000000     0.447200000000    -0.0539318  
C124     C      0.864280000000     0.314650000000     0.471440000000     0.0798454  
C125     C      0.810520000000     0.368730000000     0.475440000000    -0.0205274  
C126     C      0.724130000000     0.224110000000     0.524350000000    -0.0547517  
C127     C      0.852880000000     0.356680000000     0.480150000000    -0.133076   
C128     C      0.616390000000     0.116090000000     0.490440000000    -0.0981762  
C129     C      0.835580000000     0.689770000000     0.482540000000    -0.028869   
C130     C      0.636090000000     0.782610000000     0.476150000000    -0.0232182  
C131     C      0.657630000000     0.866000000000     0.490550000000    -0.0382446  
C132     C      0.603940000000     0.811620000000     0.490870000000    -0.0383157  
C133     C      0.717270000000     0.753490000000     0.446060000000    -0.0571268  
C134     C      0.754300000000     0.718910000000     0.512740000000    -0.0570031  
C135     C      0.705660000000     0.765070000000     0.484870000000     0.0614305  
C136     C      0.686820000000     0.834230000000     0.475640000000    -0.0230401  
C137     C      0.765940000000     0.707390000000     0.473920000000     0.0614167  
C138     C      0.784790000000     0.638090000000     0.482690000000    -0.0547435  
C139     C      0.747190000000     0.724840000000     0.440770000000    -0.0541826  
C140     C      0.813850000000     0.606400000000     0.466820000000     0.0792973  
C141     C      0.867640000000     0.660620000000     0.467820000000    -0.020101   
C142     C      0.724390000000     0.747580000000     0.518020000000    -0.0547087  
C143     C      0.855900000000     0.618390000000     0.474310000000    -0.134456   
C144     C      0.615450000000     0.853940000000     0.484660000000    -0.0988894  
C145     C      0.135500000000     0.282710000000     0.491180000000    -0.0287177  
C146     C      0.334190000000     0.188210000000     0.486390000000    -0.0232435  
C147     C      0.312860000000     0.105560000000     0.504590000000    -0.038559   
C148     C      0.366460000000     0.159590000000     0.501660000000    -0.0387404  
C149     C      0.252640000000     0.216250000000     0.456070000000    -0.0571631  
C150     C      0.217030000000     0.254440000000     0.521540000000    -0.0568002  
C151     C      0.264780000000     0.206400000000     0.495220000000     0.0613655  
C152     C      0.283250000000     0.136710000000     0.489050000000    -0.0231519  
C153     C      0.204890000000     0.264250000000     0.482400000000     0.061061   
C154     C      0.186520000000     0.334040000000     0.488340000000    -0.0544774  
C155     C      0.222930000000     0.244960000000     0.449870000000    -0.0540216  
C156     C      0.157270000000     0.365320000000     0.471840000000     0.0786577  
C157     C      0.103340000000     0.311380000000     0.475750000000    -0.0204953  
C158     C      0.246740000000     0.225700000000     0.527760000000    -0.0548017  
C159     C      0.115270000000     0.353800000000     0.480390000000    -0.132868   
C160     C      0.354760000000     0.117210000000     0.496410000000    -0.0984607  
C161     C      0.187940000000     0.636180000000     0.483540000000    -0.0288948  
C162     C      0.282590000000     0.835050000000     0.487620000000    -0.0233617  
C163     C      0.365220000000     0.812850000000     0.504340000000    -0.0388862  
C164     C      0.311380000000     0.866530000000     0.504250000000    -0.0389829  
C165     C      0.254550000000     0.754800000000     0.453340000000    -0.0571819  
C166     C      0.216050000000     0.716470000000     0.517070000000    -0.0565482  
C167     C      0.264320000000     0.765210000000     0.493010000000     0.0611751  
C168     C      0.334020000000     0.783900000000     0.487640000000    -0.0232321  
C169     C      0.206410000000     0.705960000000     0.477410000000     0.060265   
C170     C      0.136620000000     0.687330000000     0.481920000000    -0.0577963  
C171     C      0.225830000000     0.725390000000     0.445750000000    -0.0545424  
C172     C      0.105390000000     0.658220000000     0.464610000000     0.0782414  
C173     C      0.159410000000     0.604570000000     0.466800000000    -0.0221349  
C174     C      0.244820000000     0.745850000000     0.524660000000    -0.0548509  
C175     C      0.117070000000     0.616140000000     0.472480000000    -0.128934   
C176     C      0.353600000000     0.855070000000     0.497700000000    -0.0982887  
C177     C      0.636160000000     0.485520000000     0.186840000000    -0.0288869  
C178     C      0.833910000000     0.480280000000     0.282140000000    -0.0230518  
C179     C      0.811710000000     0.494100000000     0.365450000000    -0.0378633  
C180     C      0.865670000000     0.495340000000     0.311360000000    -0.0384531  
C181     C      0.753310000000     0.449660000000     0.251990000000    -0.0572368  
C182     C      0.716800000000     0.516380000000     0.216900000000    -0.0567781  
C183     C      0.764460000000     0.488460000000     0.264070000000     0.0616486  
C184     C      0.782890000000     0.478880000000     0.333420000000    -0.0234197  
C185     C      0.705660000000     0.477570000000     0.204820000000     0.0611969  
C186     C      0.687150000000     0.487360000000     0.135470000000    -0.0546714  
C187     C      0.724120000000     0.444400000000     0.222570000000    -0.0540164  
C188     C      0.658370000000     0.471960000000     0.103200000000     0.0788862  
C189     C      0.604450000000     0.470850000000     0.157350000000    -0.0201944  
C190     C      0.746000000000     0.521630000000     0.246320000000    -0.0547825  
C191     C      0.616150000000     0.478340000000     0.115280000000    -0.133774   
C192     C      0.854030000000     0.488840000000     0.353610000000    -0.0992963  
C193     C      0.135870000000     0.476530000000     0.281640000000    -0.0291799  
C194     C      0.333850000000     0.482000000000     0.186260000000    -0.0233894  
C195     C      0.312560000000     0.464640000000     0.103440000000    -0.0387928  
C196     C      0.366110000000     0.467110000000     0.157450000000    -0.0385996  
C197     C      0.252310000000     0.512060000000     0.214540000000    -0.0570376  
C198     C      0.217460000000     0.446370000000     0.253090000000    -0.0569525  
C199     C      0.264540000000     0.472980000000     0.204530000000     0.061199   
C200     C      0.282860000000     0.479670000000     0.134790000000    -0.0232547  
C201     C      0.205210000000     0.485450000000     0.263020000000     0.0612803  
C202     C      0.186890000000     0.479430000000     0.332910000000    -0.0551293  
C203     C      0.222860000000     0.518090000000     0.243560000000    -0.0541867  
C204     C      0.157770000000     0.496350000000     0.364090000000     0.080368   
C205     C      0.103760000000     0.492200000000     0.310220000000    -0.0199008  
C206     C      0.246910000000     0.440330000000     0.224030000000    -0.0546699  
C207     C      0.115710000000     0.488010000000     0.352700000000    -0.134139   
C208     C      0.354390000000     0.473000000000     0.115160000000    -0.0984985  
C209     C      0.188210000000     0.484040000000     0.634780000000    -0.0286438  
C210     C      0.283700000000     0.486270000000     0.832760000000    -0.0231552  
C211     C      0.366730000000     0.471390000000     0.810620000000    -0.0383433  
C212     C      0.312730000000     0.470530000000     0.864400000000    -0.0385834  
C213     C      0.254770000000     0.518500000000     0.751980000000    -0.0572377  
C214     C      0.217400000000     0.453010000000     0.715540000000    -0.0567446  
C215     C      0.265570000000     0.479320000000     0.763130000000     0.06157    
C216     C      0.335080000000     0.487200000000     0.781700000000    -0.0232731  
C217     C      0.206780000000     0.492190000000     0.704220000000     0.0611438  
C218     C      0.137040000000     0.485660000000     0.686030000000    -0.0543772  
C219     C      0.225620000000     0.524740000000     0.722700000000    -0.0539428  
C220     C      0.105530000000     0.502110000000     0.656980000000     0.0788116  
C221     C      0.159290000000     0.499490000000     0.602880000000    -0.0204098  
C222     C      0.246630000000     0.446770000000     0.744740000000    -0.0548233  
C223     C      0.117030000000     0.494000000000     0.614870000000    -0.13314    
C224     C      0.354920000000     0.477250000000     0.852890000000    -0.0986306  
C225     C      0.835090000000     0.493330000000     0.686620000000    -0.0288458  
C226     C      0.637080000000     0.491380000000     0.782280000000    -0.0233143  
C227     C      0.659290000000     0.476600000000     0.865400000000    -0.0388957  
C228     C      0.605640000000     0.475110000000     0.811280000000    -0.0388216  
C229     C      0.717070000000     0.524840000000     0.752990000000    -0.0571466  
C230     C      0.755130000000     0.460030000000     0.716050000000    -0.0567293  
C231     C      0.706810000000     0.485470000000     0.764050000000     0.0610805  
C232     C      0.688050000000     0.492780000000     0.833690000000    -0.0232001  
C233     C      0.765410000000     0.499400000000     0.705020000000     0.0607403  
C234     C      0.783910000000     0.492180000000     0.635280000000    -0.0549027  
C235     C      0.746150000000     0.531600000000     0.723710000000    -0.0541559  
C236     C      0.812720000000     0.508340000000     0.603320000000     0.0793945  
C237     C      0.866510000000     0.508960000000     0.657250000000    -0.0205909  
C238     C      0.726060000000     0.453270000000     0.745340000000    -0.0548195  
C239     C      0.854890000000     0.501370000000     0.615180000000    -0.13308    
C240     C      0.616950000000     0.481800000000     0.853570000000    -0.0982699  
C241     C      0.631050000000     0.690760000000     0.979130000000    -0.0285476  
C242     C      0.827850000000     0.788090000000     0.978060000000    -0.0252537  
C243     C      0.807790000000     0.871600000000     0.962560000000    -0.0385978  
C244     C      0.859980000000     0.816400000000     0.962020000000    -0.0384004  
C245     C      0.746920000000     0.761140000000     0.011380000000    -0.0554203  
C246     C      0.711080000000     0.721300000000     0.947010000000    -0.0566184  
C247     C      0.757990000000     0.771030000000     0.971920000000     0.0593453  
C248     C      0.777870000000     0.840650000000     0.978320000000    -0.0254521  
C249     C      0.700050000000     0.711430000000     0.986470000000     0.0592295  
C250     C      0.683460000000     0.640880000000     0.981930000000    -0.0544447  
C251     C      0.718150000000     0.731620000000     0.018440000000    -0.0525106  
C252     C      0.655190000000     0.609000000000     0.999310000000     0.0778252  
C253     C      0.600030000000     0.661600000000     0.995900000000    -0.0224212  
C254     C      0.739810000000     0.750900000000     0.939940000000    -0.0545473  
C255     C      0.612770000000     0.619370000000     0.991430000000    -0.133088   
C256     C      0.849580000000     0.858820000000     0.969370000000    -0.0981075  
C257     C      0.788940000000     0.142420000000     0.988230000000    -0.0330713  
C258     C      0.691700000000     0.339350000000     0.989580000000    -0.025735   
C259     C      0.609910000000     0.314600000000     0.971960000000    -0.0379207  
C260     C      0.662040000000     0.370230000000     0.973450000000    -0.0377949  
C261     C      0.723000000000     0.259290000000     0.021260000000    -0.0558501  
C262     C      0.761980000000     0.223720000000     0.956230000000    -0.0559933  
C263     C      0.712580000000     0.270440000000     0.981970000000     0.0597     
C264     C      0.642220000000     0.286490000000     0.988080000000    -0.025492   
C265     C      0.772170000000     0.212320000000     0.995500000000     0.0580046  
C266     C      0.841600000000     0.192230000000     0.988810000000    -0.0588283  
C267     C      0.752560000000     0.230440000000     0.027820000000    -0.0519729  
C268     C      0.872540000000     0.162180000000     0.004850000000     0.0854671  
C269     C      0.817080000000     0.109910000000     0.003790000000    -0.013613   
C270     C      0.732410000000     0.252560000000     0.949660000000    -0.0548497  
C271     C      0.859570000000     0.120430000000     0.997130000000    -0.138468   
C272     C      0.620060000000     0.357190000000     0.978670000000    -0.0997314  
C273     C      0.181130000000     0.826040000000     0.987300000000    -0.0334334  
C274     C      0.278530000000     0.629430000000     0.986820000000    -0.0254287  
C275     C      0.360930000000     0.654920000000     0.973740000000    -0.0374089  
C276     C      0.309000000000     0.599140000000     0.971130000000    -0.0377222  
C277     C      0.245660000000     0.708370000000     0.019590000000    -0.0557779  
C278     C      0.209470000000     0.745790000000     0.953980000000    -0.0560946  
C279     C      0.257870000000     0.698480000000     0.980490000000     0.0597103  
C280     C      0.327880000000     0.682360000000     0.989420000000    -0.0256685  
C281     C      0.197540000000     0.755950000000     0.993100000000     0.0582446  
C282     C      0.128470000000     0.776410000000     0.984070000000    -0.0588328  
C283     C      0.215750000000     0.736920000000     0.025700000000    -0.0522254  
C284     C      0.096960000000     0.805860000000     0.000100000000     0.0855987  
C285     C      0.152620000000     0.857960000000     0.003250000000    -0.0127593  
C286     C      0.239410000000     0.717260000000     0.947870000000    -0.0547681  
C287     C      0.110320000000     0.847890000000     0.994870000000    -0.139481   
C288     C      0.350670000000     0.612110000000     0.978610000000    -0.100206   
C289     C      0.287260000000     0.327750000000     0.988630000000    -0.0307858  
C290     C      0.192820000000     0.128510000000     0.987270000000    -0.0275228  
C291     C      0.111100000000     0.152570000000     0.005820000000    -0.0309824  
C292     C      0.163290000000     0.097250000000     0.003130000000    -0.0318098  
C293     C      0.222940000000     0.209190000000     0.955650000000    -0.0562532  
C294     C      0.261160000000     0.245940000000     0.020470000000    -0.0554255  
C295     C      0.213040000000     0.197750000000     0.994990000000     0.0582581  
C296     C      0.142910000000     0.181010000000     0.989490000000    -0.0294034  
C297     C      0.270800000000     0.257620000000     0.981140000000     0.0595381  
C298     C      0.340080000000     0.278210000000     0.986860000000    -0.0563672  
C299     C      0.251600000000     0.238890000000     0.948930000000    -0.0539652  
C300     C      0.370440000000     0.308210000000     0.969890000000     0.0791313  
C301     C      0.314990000000     0.360520000000     0.972690000000    -0.0199658  
C302     C      0.232470000000     0.216260000000     0.027200000000    -0.0526437  
C303     C      0.357690000000     0.350000000000     0.977830000000    -0.132851   
C304     C      0.121290000000     0.110190000000     0.997950000000    -0.10426    
C305     C      0.788570000000     0.991270000000     0.828050000000    -0.0345442  
C306     C      0.692630000000     0.989920000000     0.629960000000    -0.0250654  
C307     C      0.610700000000     0.973150000000     0.654760000000    -0.0383692  
C308     C      0.662770000000     0.973930000000     0.599120000000    -0.0384689  
C309     C      0.724240000000     0.022240000000     0.709540000000    -0.0558751  
C310     C      0.761520000000     0.957380000000     0.747200000000    -0.0560438  
C311     C      0.713290000000     0.982890000000     0.699100000000     0.0596172  
C312     C      0.643080000000     0.989310000000     0.682750000000    -0.025004   
C313     C      0.772340000000     0.996730000000     0.757770000000     0.0578836  
C314     C      0.841470000000     0.989010000000     0.778610000000    -0.0582834  
C315     C      0.753550000000     0.028950000000     0.738620000000    -0.052105   
C316     C      0.872580000000     0.005520000000     0.808200000000     0.0839554  
C317     C      0.816870000000     0.007340000000     0.860230000000    -0.0135987  
C318     C      0.732240000000     0.950660000000     0.718080000000    -0.0547302  
C319     C      0.859290000000     0.999670000000     0.850160000000    -0.138351   
C320     C      0.620840000000     0.979580000000     0.612130000000    -0.09797    
C321     C      0.192050000000     0.983430000000     0.841140000000    -0.0308019  
C322     C      0.288020000000     0.983110000000     0.643540000000    -0.0225433  
C323     C      0.371910000000     0.995870000000     0.663710000000    -0.0409078  
C324     C      0.316530000000     0.998620000000     0.611370000000    -0.0408662  
C325     C      0.259700000000     0.950490000000     0.723940000000    -0.0570858  
C326     C      0.224170000000     0.016230000000     0.761770000000    -0.0553314  
C327     C      0.271590000000     0.989580000000     0.713580000000     0.0597985  
C328     C      0.340560000000     0.980550000000     0.693320000000    -0.0226206  
C329     C      0.212040000000     0.977150000000     0.771860000000     0.0593588  
C330     C      0.142220000000     0.986280000000     0.788660000000    -0.0565891  
C331     C      0.230130000000     0.944480000000     0.752860000000    -0.0538629  
C332     C      0.109190000000     0.970240000000     0.816210000000     0.0792575  
C333     C      0.161650000000     0.968010000000     0.871670000000    -0.0196325  
C334     C      0.253710000000     0.022250000000     0.732820000000    -0.0532965  
C335     C      0.119980000000     0.975860000000     0.858920000000    -0.134319   
C336     C      0.358880000000     0.990920000000     0.621680000000    -0.097507   
C337     C      0.128950000000     0.980590000000     0.193030000000    -0.0308193  
C338     C      0.327050000000     0.983880000000     0.288910000000    -0.0261998  
C339     C      0.307240000000     0.000050000000     0.372340000000    -0.0329999  
C340     C      0.359240000000     0.000600000000     0.316820000000    -0.0329366  
C341     C      0.246150000000     0.949660000000     0.262620000000    -0.056721   
C342     C      0.208840000000     0.013530000000     0.223330000000    -0.0552024  
C343     C      0.256910000000     0.989270000000     0.272280000000     0.0593825  
C344     C      0.277450000000     0.983480000000     0.341720000000    -0.0261754  
C345     C      0.198140000000     0.973920000000     0.213650000000     0.0593001  
C346     C      0.181500000000     0.978010000000     0.143170000000    -0.0566319  
C347     C      0.216980000000     0.942200000000     0.233570000000    -0.0538351  
C348     C      0.153300000000     0.960520000000     0.111380000000     0.0797285  
C349     C      0.097970000000     0.964110000000     0.163540000000    -0.020333   
C350     C      0.237960000000     0.021000000000     0.252450000000    -0.0530374  
C351     C      0.110970000000     0.969090000000     0.121470000000    -0.13265    
C352     C      0.349150000000     0.994110000000     0.359450000000    -0.102754   
C353     C      0.629460000000     0.980500000000     0.278380000000    -0.0284378  
C354     C      0.827020000000     0.987460000000     0.182870000000    -0.0251354  
C355     C      0.807510000000     0.974300000000     0.098810000000    -0.0379103  
C356     C      0.859630000000     0.972580000000     0.154530000000    -0.0377572  
C357     C      0.745250000000     0.018240000000     0.210130000000    -0.0555716  
C358     C      0.710130000000     0.951680000000     0.246890000000    -0.0567304  
C359     C      0.757200000000     0.979380000000     0.198980000000     0.0597984  
C360     C      0.777520000000     0.988950000000     0.130060000000    -0.0251004  
C361     C      0.698170000000     0.990540000000     0.257980000000     0.0598195  
C362     C      0.681890000000     0.983580000000     0.328170000000    -0.0541255  
C363     C      0.715910000000     0.023620000000     0.239370000000    -0.0526857  
C364     C      0.653450000000     0.999660000000     0.360420000000     0.077428   
C365     C      0.598030000000     0.995620000000     0.307940000000    -0.0219638  
C366     C      0.739380000000     0.946290000000     0.217540000000    -0.0545229  
C367     C      0.611170000000     0.991070000000     0.350030000000    -0.13317    
C368     C      0.849360000000     0.979880000000     0.112070000000    -0.099074   
C369     C      0.991720000000     0.191390000000     0.840390000000    -0.0338566  
C370     C      0.991060000000     0.287530000000     0.641840000000    -0.0250023  
C371     C      0.976070000000     0.371120000000     0.662120000000    -0.0388212  
C372     C      0.974870000000     0.315820000000     0.609620000000    -0.038748   
C373     C      0.024110000000     0.259740000000     0.722800000000    -0.0557601  
C374     C      0.959260000000     0.222300000000     0.760240000000    -0.0561031  
C375     C      0.984840000000     0.270520000000     0.711990000000     0.0591794  
C376     C      0.992130000000     0.339970000000     0.691710000000    -0.0249946  
C377     C      0.998530000000     0.211430000000     0.770940000000     0.0575158  
C378     C      0.991950000000     0.141180000000     0.788140000000    -0.0596838  
C379     C      0.030750000000     0.230460000000     0.752010000000    -0.0520681  
C380     C      0.008470000000     0.108820000000     0.816400000000     0.0825059  
C381     C      0.007430000000     0.161530000000     0.871500000000    -0.0169801  
C382     C      0.952630000000     0.251590000000     0.731030000000    -0.0546827  
C383     C      0.001130000000     0.119510000000     0.858890000000    -0.132504   
C384     C      0.981200000000     0.358440000000     0.619970000000    -0.0976973  
C385     C      0.981140000000     0.787760000000     0.828340000000    -0.0310372  
C386     C      0.982040000000     0.692830000000     0.629990000000    -0.0225867  
C387     C      0.996980000000     0.610390000000     0.654550000000    -0.0405543  
C388     C      0.997870000000     0.662880000000     0.599190000000    -0.0409251  
C389     C      0.021180000000     0.730960000000     0.718620000000    -0.0534974  
C390     C      0.943260000000     0.753850000000     0.738590000000    -0.0538313  
C391     C      0.988740000000     0.712820000000     0.699290000000     0.0598417  
C392     C      0.980910000000     0.642850000000     0.682430000000    -0.0226904  
C393     C      0.975700000000     0.771830000000     0.758070000000     0.0592533  
C394     C      0.984730000000     0.840740000000     0.778950000000    -0.0571589  
C395     C      0.014860000000     0.760230000000     0.747800000000    -0.055254   
C396     C      0.968840000000     0.872160000000     0.808490000000     0.0805504  
C397     C      0.965680000000     0.816390000000     0.860480000000    -0.0192424  
C398     C      0.949580000000     0.724550000000     0.709430000000    -0.0570645  
C399     C      0.974380000000     0.858660000000     0.850430000000    -0.134928   
C400     C      0.991380000000     0.620930000000     0.611890000000    -0.097853   
C401     C      0.999840000000     0.632730000000     0.277010000000    -0.0307511  
C402     C      0.980690000000     0.777890000000     0.132970000000    -0.0254723  
C403     C      0.963050000000     0.860500000000     0.155120000000    -0.0381473  
C404     C      0.967510000000     0.807360000000     0.100410000000    -0.0382622  
C405     C      0.933280000000     0.738670000000     0.216180000000    -0.0544995  
C406     C      0.008610000000     0.718330000000     0.246270000000    -0.0551463  
C407     C      0.967290000000     0.758280000000     0.201490000000     0.0593442  
C408     C      0.976480000000     0.828290000000     0.184740000000    -0.0251704  
C409     C      0.974340000000     0.698640000000     0.260860000000     0.0590608  
C410     C      0.988570000000     0.683220000000     0.330970000000    -0.0626623  
C411     C      0.936770000000     0.709080000000     0.245580000000    -0.0545316  
C412     C      0.015320000000     0.653810000000     0.354810000000     0.076182   
C413     C      0.995940000000     0.598430000000     0.307250000000    -0.0292316  
C414     C      0.005150000000     0.747790000000     0.216700000000    -0.0552837  
C415     C      0.000730000000     0.612130000000     0.349080000000    -0.12181    
C416     C      0.972030000000     0.849570000000     0.113120000000    -0.0986997  
C417     C      0.980340000000     0.130080000000     0.192560000000    -0.0287798  
C418     C      0.985510000000     0.328900000000     0.286880000000    -0.0252844  
C419     C      0.971690000000     0.308960000000     0.370710000000    -0.0373866  
C420     C      0.970150000000     0.361340000000     0.315240000000    -0.0377874  
C421     C      0.017140000000     0.247070000000     0.259800000000    -0.0556441  
C422     C      0.951090000000     0.210980000000     0.223160000000    -0.0566905  
C423     C      0.978200000000     0.258830000000     0.270670000000     0.0598547  
C424     C      0.987210000000     0.279280000000     0.339620000000    -0.0254797  
C425     C      0.990030000000     0.199120000000     0.212410000000     0.0597685  
C426     C      0.983690000000     0.182190000000     0.142350000000    -0.0570376  
C427     C      0.022860000000     0.217380000000     0.230930000000    -0.0526594  
C428     C      0.000130000000     0.153530000000     0.110530000000     0.0835712  
C429     C      0.995400000000     0.098320000000     0.163220000000    -0.0213201  
C430     C      0.945370000000     0.240560000000     0.252150000000    -0.0544994  
C431     C      0.991230000000     0.111300000000     0.121050000000    -0.135793   
C432     C      0.977180000000     0.350970000000     0.357730000000    -0.100031   
H1       H      0.923440000000     0.927610000000     0.038820000000     0.20952    
H2       H      0.042660000000     0.037030000000     0.046890000000     0.209137   
H3       H      0.932320000000     0.046670000000     0.928790000000     0.20698    
H4       H      0.041700000000     0.926090000000     0.928830000000     0.206818   
H5       H      0.929240000000     0.542840000000     0.425130000000     0.209297   
H6       H      0.041600000000     0.426620000000     0.428390000000     0.207847   
H7       H      0.927210000000     0.431350000000     0.543620000000     0.206787   
H8       H      0.043540000000     0.544510000000     0.539490000000     0.208795   
H9       H      0.424740000000     0.928930000000     0.430370000000     0.207342   
H10      H      0.540510000000     0.042770000000     0.427140000000     0.208425   
H11      H      0.543670000000     0.927600000000     0.540170000000     0.211462   
H12      H      0.430800000000     0.042980000000     0.545710000000     0.209499   
H13      H      0.426150000000     0.540510000000     0.042060000000     0.20631    
H14      H      0.430000000000     0.426250000000     0.927050000000     0.210755   
H15      H      0.543550000000     0.428030000000     0.041480000000     0.207934   
H16      H      0.541380000000     0.543860000000     0.927120000000     0.20626    
H17      H      0.413430000000     0.253790000000     0.213720000000     0.0436751  
H18      H      0.488360000000     0.219030000000     0.342590000000     0.033693   
H19      H      0.489950000000     0.129240000000     0.252990000000     0.0418142  
H20      H      0.436890000000     0.369170000000     0.160630000000     0.0423001  
H21      H      0.525510000000     0.165080000000     0.372160000000     0.0399851  
H22      H      0.476320000000     0.251540000000     0.127900000000     0.0324081  
H23      H      0.472560000000     0.341820000000     0.216920000000     0.0322996  
H24      H      0.488190000000     0.303750000000     0.075170000000     0.042586   
H25      H      0.481080000000     0.076360000000     0.305680000000     0.0178862  
H26      H      0.422740000000     0.202980000000     0.266070000000     0.0399788  
H27      H      0.477140000000     0.166390000000     0.395310000000     0.0390052  
H28      H      0.541310000000     0.267670000000     0.204480000000     0.0401326  
H29      H      0.444900000000     0.188150000000     0.334420000000     0.034865   
H30      H      0.484090000000     0.394320000000     0.164650000000     0.0428549  
H31      H      0.519760000000     0.282320000000     0.136630000000     0.0333421  
H32      H      0.517560000000     0.334600000000     0.188040000000     0.0334496  
H33      H      0.550590000000     0.216890000000     0.256750000000     0.0453157  
H34      H      0.446500000000     0.135720000000     0.283980000000     0.0402881  
H35      H      0.439710000000     0.305900000000     0.098040000000     0.0427562  
H36      H      0.550610000000     0.081280000000     0.329070000000     0.0864375  
H37      H      0.544950000000     0.088690000000     0.279010000000     0.0790565  
H38      H      0.412810000000     0.754700000000     0.253720000000     0.0431505  
H39      H      0.490570000000     0.627920000000     0.218030000000     0.0337371  
H40      H      0.490540000000     0.717680000000     0.128390000000     0.0416471  
H41      H      0.435680000000     0.807550000000     0.369800000000     0.0396336  
H42      H      0.528140000000     0.599210000000     0.163820000000     0.0420948  
H43      H      0.472610000000     0.842330000000     0.251960000000     0.0320865  
H44      H      0.473000000000     0.752700000000     0.341690000000     0.0321411  
H45      H      0.483090000000     0.895180000000     0.304370000000     0.043069   
H46      H      0.482440000000     0.664900000000     0.075430000000     0.016498   
H47      H      0.423310000000     0.702950000000     0.202510000000     0.0394011  
H48      H      0.480290000000     0.575040000000     0.165410000000     0.0381304  
H49      H      0.540440000000     0.767420000000     0.267040000000     0.0401043  
H50      H      0.446900000000     0.635350000000     0.187290000000     0.0338255  
H51      H      0.483270000000     0.805100000000     0.394410000000     0.0431626  
H52      H      0.516660000000     0.834950000000     0.282190000000     0.0340913  
H53      H      0.516860000000     0.783180000000     0.334150000000     0.0341053  
H54      H      0.550900000000     0.715620000000     0.215960000000     0.0452833  
H55      H      0.447550000000     0.686060000000     0.134900000000     0.0391707  
H56      H      0.435520000000     0.870530000000     0.306920000000     0.0397155  
H57      H      0.552250000000     0.642340000000     0.080400000000     0.0918937  
H58      H      0.545920000000     0.692360000000     0.087690000000     0.0791776  
H59      H      0.425800000000     0.766390000000     0.700890000000     0.0401531  
H60      H      0.474200000000     0.627350000000     0.751570000000     0.0336857  
H61      H      0.472600000000     0.717490000000     0.840890000000     0.0414169  
H62      H      0.531790000000     0.805810000000     0.599620000000     0.0398936  
H63      H      0.435860000000     0.599350000000     0.805760000000     0.0418754  
H64      H      0.494680000000     0.840490000000     0.717440000000     0.0320623  
H65      H      0.493590000000     0.751310000000     0.627240000000     0.032224   
H66      H      0.485670000000     0.893730000000     0.665440000000     0.0431822  
H67      H      0.480480000000     0.665020000000     0.894150000000     0.0160461  
H68      H      0.414180000000     0.715130000000     0.752250000000     0.0450529  
H69      H      0.483480000000     0.574700000000     0.804160000000     0.0383097  
H70      H      0.553130000000     0.753090000000     0.716470000000     0.0433911  
H71      H      0.517490000000     0.634910000000     0.782870000000     0.0339475  
H72      H      0.484310000000     0.804140000000     0.574720000000     0.0433612  
H73      H      0.450740000000     0.833990000000     0.686820000000     0.0341702  
H74      H      0.450090000000     0.782350000000     0.634630000000     0.0340511  
H75      H      0.541490000000     0.701990000000     0.768010000000     0.039327   
H76      H      0.515980000000     0.686240000000     0.835100000000     0.0391161  
H77      H      0.532720000000     0.868060000000     0.662790000000     0.0398796  
H78      H      0.411090000000     0.641520000000     0.888250000000     0.0904345  
H79      H      0.416830000000     0.691600000000     0.880940000000     0.0783158  
H80      H      0.564360000000     0.218360000000     0.713980000000     0.043608   
H81      H      0.487810000000     0.251650000000     0.841130000000     0.0333811  
H82      H      0.482250000000     0.340930000000     0.751160000000     0.0415373  
H83      H      0.544100000000     0.100940000000     0.661430000000     0.0423987  
H84      H      0.447760000000     0.303980000000     0.869650000000     0.0369932  
H85      H      0.503730000000     0.217230000000     0.628130000000     0.0322492  
H86      H      0.507720000000     0.127590000000     0.717880000000     0.0324036  
H87      H      0.493920000000     0.165050000000     0.575590000000     0.0428804  
H88      H      0.489150000000     0.394380000000     0.803810000000     0.0174439  
H89      H      0.552710000000     0.269950000000     0.765080000000     0.0400257  
H90      H      0.495700000000     0.304570000000     0.893730000000     0.0384466  
H91      H      0.437150000000     0.199410000000     0.704190000000     0.0400009  
H92      H      0.529750000000     0.284640000000     0.833070000000     0.0350711  
H93      H      0.497620000000     0.074480000000     0.666050000000     0.0429208  
H94      H      0.460420000000     0.186090000000     0.636400000000     0.0334992  
H95      H      0.462730000000     0.133850000000     0.688750000000     0.0334301  
H96      H      0.425570000000     0.250810000000     0.755340000000     0.0452562  
H97      H      0.525980000000     0.336460000000     0.782110000000     0.0402035  
H98      H      0.541550000000     0.162380000000     0.600180000000     0.0417456  
H99      H      0.419850000000     0.387180000000     0.826820000000     0.0851258  
H100     H      0.425860000000     0.379540000000     0.776870000000     0.0782232  
H101     H      0.716370000000     0.214560000000     0.554330000000     0.0435458  
H102     H      0.750890000000     0.344500000000     0.480340000000     0.0336481  
H103     H      0.840190000000     0.254550000000     0.477120000000     0.0415696  
H104     H      0.600930000000     0.161800000000     0.531440000000     0.0422945  
H105     H      0.804640000000     0.374390000000     0.443170000000     0.0420793  
H106     H      0.718230000000     0.129030000000     0.490450000000     0.032046   
H107     H      0.628130000000     0.218030000000     0.495690000000     0.0323487  
H108     H      0.665740000000     0.076380000000     0.478610000000     0.0410225  
H109     H      0.893320000000     0.306880000000     0.485810000000     0.016402   
H110     H      0.766910000000     0.267170000000     0.545150000000     0.0395194  
H111     H      0.803870000000     0.396910000000     0.491870000000     0.0378281  
H112     H      0.701830000000     0.206250000000     0.426350000000     0.0402154  
H113     H      0.781950000000     0.335710000000     0.523550000000     0.0336941  
H114     H      0.575580000000     0.165710000000     0.484340000000     0.0427607  
H115     H      0.686960000000     0.138080000000     0.447420000000     0.0325403  
H116     H      0.634920000000     0.189320000000     0.450500000000     0.0334911  
H117     H      0.752350000000     0.258810000000     0.417210000000     0.0452465  
H118     H      0.834220000000     0.285140000000     0.520960000000     0.0391882  
H119     H      0.664610000000     0.098580000000     0.527470000000     0.0429598  
H120     H      0.887330000000     0.331350000000     0.416570000000     0.0914426  
H121     H      0.880150000000     0.281160000000     0.421770000000     0.0785129  
H122     H      0.715750000000     0.756290000000     0.548030000000     0.0435637  
H123     H      0.843260000000     0.720280000000     0.471570000000     0.0337561  
H124     H      0.753860000000     0.630340000000     0.473050000000     0.0412604  
H125     H      0.662810000000     0.870940000000     0.523060000000     0.0400762  
H126     H      0.872310000000     0.665440000000     0.435220000000     0.0406383  
H127     H      0.628480000000     0.752060000000     0.487080000000     0.0321638  
H128     H      0.717370000000     0.842410000000     0.486080000000     0.0320892  
H129     H      0.575450000000     0.804300000000     0.475320000000     0.0429288  
H130     H      0.806520000000     0.577770000000     0.482280000000     0.0160834  
H131     H      0.768260000000     0.705710000000     0.538810000000     0.0399379  
H132     H      0.896190000000     0.668000000000     0.483220000000     0.0393361  
H133     H      0.703290000000     0.766610000000     0.419960000000     0.0400176  
H134     H      0.835760000000     0.690380000000     0.515870000000     0.0347713  
H135     H      0.664590000000     0.894550000000     0.474900000000     0.0431069  
H136     H      0.635910000000     0.782020000000     0.442810000000     0.0337822  
H137     H      0.686920000000     0.834140000000     0.442300000000     0.033803   
H138     H      0.755820000000     0.716120000000     0.410770000000     0.0451996  
H139     H      0.785330000000     0.637760000000     0.516030000000     0.0391913  
H140     H      0.599100000000     0.806620000000     0.523420000000     0.0401503  
H141     H      0.829420000000     0.581480000000     0.412440000000     0.0856341  
H142     H      0.779430000000     0.588850000000     0.418370000000     0.078123   
H143     H      0.255780000000     0.218380000000     0.558010000000     0.0434733  
H144     H      0.127470000000     0.251800000000     0.481640000000     0.0337393  
H145     H      0.217310000000     0.341220000000     0.477830000000     0.0411629  
H146     H      0.308920000000     0.102520000000     0.537510000000     0.0398363  
H147     H      0.098200000000     0.305280000000     0.443430000000     0.039841   
H148     H      0.342120000000     0.219100000000     0.496050000000     0.0321524  
H149     H      0.252980000000     0.129050000000     0.500630000000     0.0323715  
H150     H      0.394870000000     0.166630000000     0.485870000000     0.0430745  
H151     H      0.164900000000     0.394400000000     0.486270000000     0.0174004  
H152     H      0.203610000000     0.268990000000     0.547170000000     0.0397833  
H153     H      0.074980000000     0.304710000000     0.491810000000     0.0392565  
H154     H      0.266080000000     0.201740000000     0.430430000000     0.0401706  
H155     H      0.135830000000     0.283500000000     0.524510000000     0.0349235  
H156     H      0.305150000000     0.076230000000     0.490860000000     0.0436939  
H157     H      0.333820000000     0.187530000000     0.453060000000     0.034135   
H158     H      0.282300000000     0.135310000000     0.455760000000     0.0342995  
H159     H      0.213910000000     0.252310000000     0.419610000000     0.0447333  
H160     H      0.186650000000     0.335710000000     0.521650000000     0.0401282  
H161     H      0.371320000000     0.165300000000     0.534090000000     0.0398986  
H162     H      0.141940000000     0.389900000000     0.417200000000     0.085161   
H163     H      0.191490000000     0.379960000000     0.422250000000     0.0778198  
H164     H      0.252020000000     0.753570000000     0.555300000000     0.0436101  
H165     H      0.218880000000     0.628480000000     0.473950000000     0.0331351  
H166     H      0.129370000000     0.718390000000     0.472200000000     0.0397713  
H167     H      0.368130000000     0.807670000000     0.537100000000     0.0421893  
H168     H      0.165270000000     0.601440000000     0.434230000000     0.0396061  
H169     H      0.251820000000     0.842580000000     0.497890000000     0.0320196  
H170     H      0.341700000000     0.753120000000     0.497860000000     0.0322228  
H171     H      0.304080000000     0.895790000000     0.490170000000     0.0422486  
H172     H      0.076590000000     0.665660000000     0.479640000000     0.0200316  
H173     H      0.201370000000     0.702020000000     0.542050000000     0.0398845  
H174     H      0.166460000000     0.575400000000     0.481190000000     0.0380238  
H175     H      0.269140000000     0.769330000000     0.428350000000     0.0396059  
H176     H      0.186890000000     0.635360000000     0.516850000000     0.0344935  
H177     H      0.394530000000     0.805570000000     0.490410000000     0.0427966  
H178     H      0.283030000000     0.836300000000     0.454310000000     0.0330068  
H179     H      0.335320000000     0.784410000000     0.454330000000     0.0331252  
H180     H      0.218610000000     0.717670000000     0.415110000000     0.0432435  
H181     H      0.134790000000     0.686680000000     0.515210000000     0.0403556  
H182     H      0.306160000000     0.869560000000     0.536980000000     0.0421475  
H183     H      0.069940000000     0.663680000000     0.412810000000     0.0601898  
H184     H      0.114250000000     0.689600000000     0.410310000000     0.0813699  
H185     H      0.754310000000     0.551630000000     0.255360000000     0.0439873  
H186     H      0.628470000000     0.473940000000     0.217130000000     0.0337965  
H187     H      0.718240000000     0.478250000000     0.127690000000     0.0410748  
H188     H      0.806000000000     0.526510000000     0.370240000000     0.0376228  
H189     H      0.600300000000     0.438080000000     0.161540000000     0.0397568  
H190     H      0.841570000000     0.491400000000     0.251680000000     0.0323276  
H191     H      0.752150000000     0.488840000000     0.341440000000     0.0320314  
H192     H      0.894400000000     0.480240000000     0.304050000000     0.0429993  
H193     H      0.665390000000     0.488520000000     0.075110000000     0.0160856  
H194     H      0.702970000000     0.542480000000     0.203630000000     0.0402239  
H195     H      0.575650000000     0.485630000000     0.165010000000     0.0391319  
H196     H      0.767140000000     0.423550000000     0.265260000000     0.0404331  
H197     H      0.635510000000     0.518840000000     0.188010000000     0.0351702  
H198     H      0.804860000000     0.478370000000     0.393980000000     0.0426364  
H199     H      0.834500000000     0.446930000000     0.281450000000     0.033963   
H200     H      0.783270000000     0.445530000000     0.333180000000     0.0343714  
H201     H      0.715800000000     0.414410000000     0.213510000000     0.0449149  
H202     H      0.686280000000     0.520710000000     0.135860000000     0.0393612  
H203     H      0.870050000000     0.527990000000     0.306510000000     0.040282   
H204     H      0.644770000000     0.418500000000     0.075170000000     0.0859994  
H205     H      0.694160000000     0.424600000000     0.085290000000     0.0780043  
H206     H      0.256060000000     0.410120000000     0.216630000000     0.0435845  
H207     H      0.127860000000     0.485920000000     0.250690000000     0.0338353  
H208     H      0.217750000000     0.489800000000     0.340010000000     0.0413273  
H209     H      0.308840000000     0.431720000000     0.100090000000     0.0426174  
H210     H      0.098550000000     0.524460000000     0.303810000000     0.0420833  
H211     H      0.341870000000     0.472040000000     0.217030000000     0.0321569  
H212     H      0.252650000000     0.467990000000     0.127040000000     0.0323586  
H213     H      0.394520000000     0.482780000000     0.164770000000     0.042435   
H214     H      0.165270000000     0.482150000000     0.393320000000     0.0148506  
H215     H      0.204310000000     0.420670000000     0.267770000000     0.0397369  
H216     H      0.075420000000     0.476040000000     0.303730000000     0.0383902  
H217     H      0.265480000000     0.537800000000     0.199960000000     0.0396742  
H218     H      0.136160000000     0.443200000000     0.282610000000     0.034033   
H219     H      0.304780000000     0.478620000000     0.074260000000     0.0427132  
H220     H      0.333410000000     0.515350000000     0.185930000000     0.0330277  
H221     H      0.281710000000     0.512980000000     0.133700000000     0.0330716  
H222     H      0.213730000000     0.548300000000     0.250980000000     0.0451278  
H223     H      0.186820000000     0.446120000000     0.334740000000     0.0384604  
H224     H      0.370950000000     0.434590000000     0.162700000000     0.0419508  
H225     H      0.141780000000     0.551620000000     0.386700000000     0.093935   
H226     H      0.191810000000     0.545770000000     0.379540000000     0.0787988  
H227     H      0.254600000000     0.416480000000     0.753120000000     0.0438409  
H228     H      0.218940000000     0.494060000000     0.626770000000     0.0335857  
H229     H      0.129810000000     0.495810000000     0.716960000000     0.0415184  
H230     H      0.370700000000     0.438810000000     0.805150000000     0.0376213  
H231     H      0.164870000000     0.531970000000     0.598220000000     0.0395763  
H232     H      0.253130000000     0.475440000000     0.840330000000     0.0323381  
H233     H      0.342990000000     0.477150000000     0.750930000000     0.0319968  
H234     H      0.305320000000     0.485090000000     0.893400000000     0.0433389  
H235     H      0.076600000000     0.487400000000     0.664540000000     0.0176969  
H236     H      0.203160000000     0.427370000000     0.701800000000     0.0398398  
H237     H      0.166200000000     0.483950000000     0.574270000000     0.0391069  
H238     H      0.268870000000     0.544150000000     0.765840000000     0.0404867  
H239     H      0.187810000000     0.450690000000     0.634700000000     0.0348916  
H240     H      0.395590000000     0.486360000000     0.803590000000     0.0426703  
H241     H      0.283440000000     0.519610000000     0.833650000000     0.0342548  
H242     H      0.335450000000     0.520540000000     0.782170000000     0.0343954  
H243     H      0.217630000000     0.555030000000     0.714340000000     0.0449949  
H244     H      0.135760000000     0.452330000000     0.685850000000     0.0402759  
H245     H      0.307830000000     0.437800000000     0.868100000000     0.0404141  
H246     H      0.081470000000     0.556870000000     0.641400000000     0.0855521  
H247     H      0.089720000000     0.551260000000     0.691300000000     0.0782413  
H248     H      0.718460000000     0.422840000000     0.753530000000     0.0434637  
H249     H      0.842760000000     0.504440000000     0.717090000000     0.0335066  
H250     H      0.752830000000     0.501460000000     0.627700000000     0.0412019  
H251     H      0.665190000000     0.444110000000     0.869630000000     0.0422187  
H252     H      0.869780000000     0.541800000000     0.661600000000     0.0419391  
H253     H      0.629660000000     0.480590000000     0.751640000000     0.03209    
H254     H      0.718890000000     0.483050000000     0.841610000000     0.0319908  
H255     H      0.576470000000     0.489310000000     0.803910000000     0.0422051  
H256     H      0.805480000000     0.492650000000     0.574800000000     0.0162704  
H257     H      0.769530000000     0.434620000000     0.702050000000     0.0394225  
H258     H      0.895660000000     0.494900000000     0.664890000000     0.0384956  
H259     H      0.702630000000     0.550240000000     0.766960000000     0.0395235  
H260     H      0.836210000000     0.460000000000     0.687150000000     0.0340408  
H261     H      0.666020000000     0.491800000000     0.894230000000     0.0421741  
H262     H      0.635730000000     0.524700000000     0.782140000000     0.0328188  
H263     H      0.687270000000     0.526120000000     0.834130000000     0.0326966  
H264     H      0.753740000000     0.562030000000     0.715500000000     0.0445842  
H265     H      0.784810000000     0.458840000000     0.634840000000     0.0391765  
H266     H      0.602370000000     0.442360000000     0.806230000000     0.0424848  
H267     H      0.826600000000     0.562360000000     0.576690000000     0.0903756  
H268     H      0.777190000000     0.556410000000     0.586890000000     0.0782132  
H269     H      0.748150000000     0.758040000000     0.909450000000     0.0434495  
H270     H      0.622380000000     0.721650000000     0.988150000000     0.0327104  
H271     H      0.714560000000     0.634680000000     0.992130000000     0.0407658  
H272     H      0.803030000000     0.875320000000     0.929830000000     0.042075   
H273     H      0.596020000000     0.668090000000     0.028260000000     0.0398886  
H274     H      0.834830000000     0.757260000000     0.967470000000     0.0323786  
H275     H      0.747450000000     0.849160000000     0.967800000000     0.0323957  
H276     H      0.888980000000     0.807960000000     0.975930000000     0.0425279  
H277     H      0.663240000000     0.579940000000     0.985090000000     0.0161103  
H278     H      0.697630000000     0.706080000000     0.921790000000     0.0392911  
H279     H      0.571010000000     0.667520000000     0.980780000000     0.0376317  
H280     H      0.760670000000     0.776020000000     0.036640000000     0.0398928  
H281     H      0.630740000000     0.689210000000     0.945830000000     0.0337151  
H282     H      0.801200000000     0.900830000000     0.977050000000     0.0420406  
H283     H      0.828850000000     0.788100000000     0.011390000000     0.0350004  
H284     H      0.777920000000     0.841440000000     0.011640000000     0.0346867  
H285     H      0.710010000000     0.724260000000     0.048940000000     0.0450187  
H286     H      0.683230000000     0.638710000000     0.948650000000     0.0389482  
H287     H      0.862890000000     0.811720000000     0.929190000000     0.0420582  
H288     H      0.641350000000     0.584750000000     0.054470000000     0.0901941  
H289     H      0.690590000000     0.595700000000     0.048420000000     0.078842   
H290     H      0.724700000000     0.260850000000     0.919300000000     0.0435688  
H291     H      0.758110000000     0.135370000000     0.998650000000     0.0343688  
H292     H      0.849850000000     0.222950000000     0.998790000000     0.041447   
H293     H      0.606690000000     0.309510000000     0.939230000000     0.0421754  
H294     H      0.812050000000     0.106190000000     0.036480000000     0.0412818  
H295     H      0.722300000000     0.348200000000     0.979870000000     0.0319442  
H296     H      0.635700000000     0.255660000000     0.977230000000     0.0325091  
H297     H      0.667970000000     0.399220000000     0.988710000000     0.0401378  
H298     H      0.901410000000     0.168730000000     0.989560000000     0.0137838  
H299     H      0.776590000000     0.210120000000     0.930730000000     0.0393812  
H300     H      0.808800000000     0.081230000000     0.989090000000     0.0370042  
H301     H      0.708150000000     0.272660000000     0.046740000000     0.0399652  
H302     H      0.788990000000     0.141940000000     0.954890000000     0.0354096  
H303     H      0.581000000000     0.306380000000     0.986220000000     0.0416542  
H304     H      0.690890000000     0.339690000000     0.022910000000     0.0337897  
H305     H      0.640930000000     0.286220000000     0.021400000000     0.034614   
H306     H      0.760040000000     0.221890000000     0.058180000000     0.0445821  
H307     H      0.842480000000     0.191950000000     0.955480000000     0.0399373  
H308     H      0.667800000000     0.374680000000     0.940970000000     0.0420119  
H309     H      0.898120000000     0.146710000000     0.058950000000     0.0913596  
H310     H      0.889520000000     0.196540000000     0.053590000000     0.0784843  
H311     H      0.248510000000     0.709910000000     0.917640000000     0.0436888  
H312     H      0.211640000000     0.832580000000     0.998930000000     0.0337106  
H313     H      0.119840000000     0.745330000000     0.992490000000     0.0417523  
H314     H      0.365270000000     0.661150000000     0.941370000000     0.0388586  
H315     H      0.156680000000     0.860120000000     0.036170000000     0.0374831  
H316     H      0.248450000000     0.620870000000     0.975370000000     0.032382   
H317     H      0.334780000000     0.713570000000     0.980010000000     0.0319503  
H318     H      0.302470000000     0.569680000000     0.985170000000     0.0417414  
H319     H      0.068750000000     0.800140000000     0.983310000000     0.0141413  
H320     H      0.195950000000     0.760160000000     0.928300000000     0.0395514  
H321     H      0.161400000000     0.887230000000     0.990070000000     0.0355458  
H322     H      0.259420000000     0.694260000000     0.045290000000     0.0395463  
H323     H      0.182110000000     0.827770000000     0.954020000000     0.0354067  
H324     H      0.389230000000     0.662710000000     0.989370000000     0.040691   
H325     H      0.277750000000     0.628010000000     0.020120000000     0.034392   
H326     H      0.327660000000     0.681390000000     0.022750000000     0.034341   
H327     H      0.206910000000     0.744530000000     0.055940000000     0.044584   
H328     H      0.128900000000     0.778000000000     0.950760000000     0.0401325  
H329     H      0.304730000000     0.595690000000     0.938300000000     0.0420202  
H330     H      0.069240000000     0.819050000000     0.053770000000     0.0910639  
H331     H      0.077720000000     0.769450000000     0.046450000000     0.0789399  
H332     H      0.225090000000     0.207820000000     0.057610000000     0.0432954  
H333     H      0.256200000000     0.334680000000     0.978840000000     0.0339814  
H334     H      0.348230000000     0.247470000000     0.976850000000     0.0418005  
H335     H      0.108900000000     0.157000000000     0.038720000000     0.0361939  
H336     H      0.308950000000     0.364800000000     0.940240000000     0.0398002  
H337     H      0.223470000000     0.119800000000     0.996930000000     0.0328092  
H338     H      0.136230000000     0.211720000000     0.000580000000     0.0344939  
H339     H      0.169340000000     0.068390000000     0.987680000000     0.041176   
H340     H      0.399760000000     0.301700000000     0.984310000000     0.0172037  
H341     H      0.275600000000     0.259910000000     0.045870000000     0.0399533  
H342     H      0.307310000000     0.389000000000     0.988130000000     0.0388649  
H343     H      0.208310000000     0.195430000000     0.930240000000     0.0401946  
H344     H      0.287930000000     0.328060000000     0.021960000000     0.0365175  
H345     H      0.081830000000     0.161110000000     0.992560000000     0.0403328  
H346     H      0.192040000000     0.128420000000     0.953940000000     0.035261   
H347     H      0.141260000000     0.181420000000     0.956190000000     0.035948   
H348     H      0.258760000000     0.247560000000     0.918530000000     0.0452837  
H349     H      0.341680000000     0.278680000000     0.020160000000     0.0416952  
H350     H      0.169030000000     0.092630000000     0.035580000000     0.0389038  
H351     H      0.393120000000     0.324380000000     0.914710000000     0.0862913  
H352     H      0.387070000000     0.274190000000     0.920820000000     0.0787318  
H353     H      0.724050000000     0.920240000000     0.710440000000     0.0435707  
H354     H      0.757920000000     0.002560000000     0.834540000000     0.0359585  
H355     H      0.850090000000     0.997640000000     0.747590000000     0.0409724  
H356     H      0.607350000000     0.940440000000     0.660040000000     0.0398808  
H357     H      0.812380000000     0.040210000000     0.862930000000     0.0382614  
H358     H      0.723120000000     0.979790000000     0.621220000000     0.0322354  
H359     H      0.636410000000     0.978800000000     0.713660000000     0.0323541  
H360     H      0.668790000000     0.988960000000     0.570050000000     0.042815   
H361     H      0.901140000000     0.989370000000     0.802340000000     0.013656   
H362     H      0.775460000000     0.931950000000     0.761630000000     0.0398115  
H363     H      0.808260000000     0.993660000000     0.889320000000     0.0368973  
H364     H      0.709980000000     0.047680000000     0.695450000000     0.0400721  
H365     H      0.787890000000     0.957960000000     0.829620000000     0.0363418  
H366     H      0.581870000000     0.987590000000     0.662930000000     0.0429236  
H367     H      0.692220000000     0.023260000000     0.629340000000     0.0353401  
H368     H      0.642040000000     0.022650000000     0.682700000000     0.0354794  
H369     H      0.761490000000     0.059370000000     0.746520000000     0.044284   
H370     H      0.841650000000     0.955690000000     0.780150000000     0.0398418  
H371     H      0.668230000000     0.941360000000     0.594840000000     0.0397963  
H372     H      0.899250000000     0.059610000000     0.821740000000     0.0851828  
H373     H      0.890730000000     0.052570000000     0.772120000000     0.0777815  
H374     H      0.262560000000     0.052470000000     0.725100000000     0.0434716  
H375     H      0.222090000000     0.971710000000     0.849460000000     0.0336934  
H376     H      0.135360000000     0.977790000000     0.757160000000     0.04106    
H377     H      0.377120000000     0.028250000000     0.669450000000     0.0414443  
H378     H      0.165680000000     0.935140000000     0.875090000000     0.039418   
H379     H      0.257490000000     0.994600000000     0.636830000000     0.0316427  
H380     H      0.349440000000     0.990160000000     0.723950000000     0.031667   
H381     H      0.308060000000     0.984560000000     0.582420000000     0.0436078  
H382     H      0.081290000000     0.986820000000     0.808630000000     0.0155719  
H383     H      0.210640000000     0.041970000000     0.776030000000     0.0397777  
H384     H      0.168480000000     0.982030000000     0.901070000000     0.0384251  
H385     H      0.273010000000     0.924750000000     0.709490000000     0.0400295  
H386     H      0.193150000000     0.016730000000     0.842570000000     0.0362536  
H387     H      0.400480000000     0.979910000000     0.669690000000     0.0431781  
H388     H      0.287090000000     0.949800000000     0.642260000000     0.0339321  
H389     H      0.340150000000     0.947210000000     0.692620000000     0.0338393  
H390     H      0.221050000000     0.914270000000     0.760340000000     0.0445799  
H391     H      0.142480000000     0.019600000000     0.790220000000     0.0405818  
H392     H      0.312210000000     0.031480000000     0.608150000000     0.0412323  
H393     H      0.080950000000     0.916500000000     0.827990000000     0.0850085  
H394     H      0.092590000000     0.923490000000     0.779000000000     0.0777319  
H395     H      0.246010000000     0.051610000000     0.259440000000     0.0435761  
H396     H      0.120210000000     0.971220000000     0.223790000000     0.0340764  
H397     H      0.212590000000     0.967770000000     0.136960000000     0.0419277  
H398     H      0.301780000000     0.032690000000     0.375950000000     0.0414294  
H399     H      0.093730000000     0.931640000000     0.169570000000     0.0420531  
H400     H      0.333680000000     0.994180000000     0.257920000000     0.0324871  
H401     H      0.246900000000     0.993550000000     0.350320000000     0.0324739  
H402     H      0.388260000000     0.986580000000     0.308630000000     0.0406265  
H403     H      0.161750000000     0.974150000000     0.082160000000     0.0166743  
H404     H      0.194890000000     0.038580000000     0.208260000000     0.0399225  
H405     H      0.068970000000     0.979270000000     0.169480000000     0.0386073  
H406     H      0.260440000000     0.924590000000     0.277330000000     0.0396357  
H407     H      0.128540000000     0.013910000000     0.191840000000     0.0360016  
H408     H      0.301110000000     0.985580000000     0.401680000000     0.0402624  
H409     H      0.328400000000     0.950550000000     0.289270000000     0.0337927  
H410     H      0.278060000000     0.950160000000     0.342780000000     0.0335294  
H411     H      0.209170000000     0.911580000000     0.226330000000     0.0449169  
H412     H      0.181230000000     0.011280000000     0.140920000000     0.0411983  
H413     H      0.362060000000     0.033340000000     0.311460000000     0.0415506  
H414     H      0.137680000000     0.904900000000     0.089520000000     0.0908666  
H415     H      0.187580000000     0.910800000000     0.097590000000     0.0789922  
H416     H      0.748440000000     0.916260000000     0.209370000000     0.0434593  
H417     H      0.620480000000     0.989990000000     0.247720000000     0.0329186  
H418     H      0.712800000000     0.994310000000     0.334510000000     0.0407762  
H419     H      0.802350000000     0.941860000000     0.093380000000     0.0400388  
H420     H      0.592650000000     0.027880000000     0.301960000000     0.0383531  
H421     H      0.833820000000     0.976170000000     0.213480000000     0.032312   
H422     H      0.747140000000     0.978720000000     0.121030000000     0.032526   
H423     H      0.888190000000     0.987370000000     0.163030000000     0.042723   
H424     H      0.661930000000     0.984990000000     0.389140000000     0.0172836  
H425     H      0.697030000000     0.925650000000     0.261030000000     0.0397979  
H426     H      0.569580000000     0.979420000000     0.302050000000     0.0387148  
H427     H      0.758740000000     0.044300000000     0.196430000000     0.0402423  
H428     H      0.630150000000     0.947170000000     0.279140000000     0.0347969  
H429     H      0.801400000000     0.990300000000     0.070260000000     0.0429648  
H430     H      0.827540000000     0.020800000000     0.183760000000     0.0356514  
H431     H      0.777550000000     0.022300000000     0.130460000000     0.0355512  
H432     H      0.707100000000     0.053660000000     0.247790000000     0.0451443  
H433     H      0.682380000000     0.950260000000     0.329580000000     0.0401309  
H434     H      0.863610000000     0.939830000000     0.159010000000     0.0397657  
H435     H      0.638530000000     0.054060000000     0.385820000000     0.0848803  
H436     H      0.687840000000     0.049260000000     0.374640000000     0.0784524  
H437     H      0.922250000000     0.259470000000     0.723020000000     0.0430851  
H438     H      0.002210000000     0.221860000000     0.848850000000     0.0356639  
H439     H      0.001520000000     0.134410000000     0.756940000000     0.043003   
H440     H      0.943640000000     0.375590000000     0.667930000000     0.0396898  
H441     H      0.040050000000     0.166590000000     0.875530000000     0.0411606  
H442     H      0.980440000000     0.256690000000     0.634980000000     0.0321683  
H443     H      0.982260000000     0.348550000000     0.722360000000     0.032163   
H444     H      0.989270000000     0.307890000000     0.580690000000     0.0426976  
H445     H      0.993280000000     0.080230000000     0.808430000000     0.0135578  
H446     H      0.933830000000     0.208020000000     0.774280000000     0.0392499  
H447     H      0.992680000000     0.168120000000     0.900580000000     0.0364963  
H448     H      0.049550000000     0.273780000000     0.708530000000     0.0398607  
H449     H      0.958420000000     0.191380000000     0.841080000000     0.0347219  
H450     H      0.991330000000     0.400080000000     0.668170000000     0.0426244  
H451     H      0.024350000000     0.287450000000     0.640650000000     0.0353299  
H452     H      0.025430000000     0.340430000000     0.691110000000     0.0351693  
H453     H      0.061120000000     0.222380000000     0.759840000000     0.0444391  
H454     H      0.958650000000     0.140200000000     0.788790000000     0.0393349  
H455     H      0.942220000000     0.310510000000     0.606230000000     0.0396623  
H456     H      0.062780000000     0.082720000000     0.829930000000     0.0905668  
H457     H      0.056890000000     0.093990000000     0.780700000000     0.0785481  
H458     H      0.924010000000     0.710890000000     0.695020000000     0.0401943  
H459     H      0.969130000000     0.757340000000     0.834750000000     0.0337966  
H460     H      0.976370000000     0.849590000000     0.747910000000     0.040998   
H461     H      0.029480000000     0.606640000000     0.660350000000     0.0389265  
H462     H      0.932730000000     0.812680000000     0.863110000000     0.0413869  
H463     H      0.992860000000     0.723220000000     0.621630000000     0.0315584  
H464     H      0.990740000000     0.635800000000     0.713480000000     0.0313983  
H465     H      0.983300000000     0.669350000000     0.569980000000     0.0436421  
H466     H      0.985580000000     0.900420000000     0.802680000000     0.0142789  
H467     H      0.913000000000     0.762440000000     0.746270000000     0.0447817  
H468     H      0.979070000000     0.807450000000     0.889590000000     0.0378375  
H469     H      0.051440000000     0.722140000000     0.711170000000     0.043442   
H470     H      0.014380000000     0.786320000000     0.830020000000     0.0354649  
H471     H      0.982030000000     0.581680000000     0.662310000000     0.0429089  
H472     H      0.948740000000     0.693060000000     0.628940000000     0.0339109  
H473     H      0.947610000000     0.642460000000     0.681770000000     0.0342638  
H474     H      0.040430000000     0.773580000000     0.762500000000     0.0393915  
H475     H      0.018000000000     0.840190000000     0.780580000000     0.0397054  
H476     H      0.030530000000     0.667830000000     0.595330000000     0.041235   
H477     H      0.915330000000     0.899930000000     0.822020000000     0.0909994  
H478     H      0.922280000000     0.891380000000     0.772390000000     0.0778302  
H479     H      0.031900000000     0.762420000000     0.205850000000     0.0398373  
H480     H      0.988070000000     0.622260000000     0.247650000000     0.0337577  
H481     H      0.960640000000     0.688630000000     0.348170000000     0.0485197  
H482     H      0.930200000000     0.864730000000     0.158140000000     0.0397014  
H483     H      0.966060000000     0.584180000000     0.303630000000     0.04163    
H484     H      0.971070000000     0.747290000000     0.123930000000     0.032173   
H485     H      0.963720000000     0.835560000000     0.214640000000     0.03241    
H486     H      0.985060000000     0.801000000000     0.072850000000     0.040486   
H487     H      0.045640000000     0.655780000000     0.341050000000     0.0157193  
H488     H      0.037930000000     0.710900000000     0.257810000000     0.0398517  
H489     H      0.018690000000     0.575120000000     0.300370000000     0.0398796  
H490     H      0.903970000000     0.746410000000     0.204780000000     0.0439248  
H491     H      0.031970000000     0.640420000000     0.272950000000     0.0353566  
H492     H      0.977550000000     0.889180000000     0.163800000000     0.0429814  
H493     H      0.013940000000     0.778010000000     0.135170000000     0.0347006  
H494     H      0.009690000000     0.828890000000     0.187260000000     0.0353985  
H495     H      0.910150000000     0.694200000000     0.256510000000     0.0443051  
H496     H      0.004580000000     0.712390000000     0.328810000000     0.0404883  
H497     H      0.935500000000     0.801810000000     0.093320000000     0.0404526  
H498     H      0.049190000000     0.664160000000     0.406530000000     0.0607107  
H499     H      0.007940000000     0.694390000000     0.402660000000     0.0766671  
H500     H      0.915260000000     0.249460000000     0.260130000000     0.0437357  
H501     H      0.989750000000     0.121300000000     0.223300000000     0.0334515  
H502     H      0.994390000000     0.213100000000     0.135850000000     0.0412109  
H503     H      0.939260000000     0.303400000000     0.375120000000     0.0387048  
H504     H      0.027560000000     0.092520000000     0.169380000000     0.0408459  
H505     H      0.974310000000     0.335630000000     0.256220000000     0.0323657  
H506     H      0.977430000000     0.248670000000     0.348480000000     0.0321028  
H507     H      0.984670000000     0.390110000000     0.306930000000     0.0418999  
H508     H      0.985950000000     0.161900000000     0.081540000000     0.014141   
H509     H      0.925240000000     0.197540000000     0.209040000000     0.0400532  
H510     H      0.978890000000     0.070040000000     0.169140000000     0.0393732  
H511     H      0.043010000000     0.260900000000     0.273500000000     0.0399072  
H512     H      0.947050000000     0.130780000000     0.191760000000     0.0349496  
H513     H      0.986990000000     0.302790000000     0.399610000000     0.0412329  
H514     H      0.018810000000     0.329770000000     0.286140000000     0.0346351  
H515     H      0.020520000000     0.279900000000     0.339540000000     0.0347541  
H516     H      0.052970000000     0.208690000000     0.222730000000     0.0449382  
H517     H      0.950420000000     0.182560000000     0.140650000000     0.0399168  
H518     H      0.937430000000     0.365010000000     0.310530000000     0.0419079  
H519     H      0.054930000000     0.137680000000     0.086820000000     0.0863091  
H520     H      0.049950000000     0.187450000000     0.096160000000     0.0784851  
N1       N      0.494440000000     0.176460000000     0.295620000000    -0.108083   
N2       N      0.469680000000     0.294190000000     0.174750000000    -0.11652    
N3       N      0.539110000000     0.100660000000     0.307350000000    -0.189648   
N4       N      0.495650000000     0.675180000000     0.175640000000    -0.107922   
N5       N      0.468140000000     0.794950000000     0.294300000000    -0.116659   
N6       N      0.540480000000     0.663960000000     0.099720000000    -0.189938   
N7       N      0.468560000000     0.674780000000     0.793710000000    -0.108059   
N8       N      0.498720000000     0.793310000000     0.674830000000    -0.116678   
N9       N      0.422810000000     0.663260000000     0.869030000000    -0.190054   
N10      N      0.479850000000     0.293760000000     0.794010000000    -0.108233   
N11      N      0.509940000000     0.175090000000     0.675510000000    -0.116644   
N12      N      0.432040000000     0.367990000000     0.805310000000    -0.189883   
N13      N      0.793090000000     0.297340000000     0.473490000000    -0.107928   
N14      N      0.675730000000     0.175850000000     0.497960000000    -0.116397   
N15      N      0.868230000000     0.309420000000     0.428110000000    -0.190004   
N16      N      0.796300000000     0.677540000000     0.467100000000    -0.108027   
N17      N      0.675300000000     0.794960000000     0.491630000000    -0.116599   
N18      N      0.807760000000     0.601020000000     0.423750000000    -0.189604   
N19      N      0.174610000000     0.294000000000     0.474630000000    -0.108291   
N20      N      0.295130000000     0.176700000000     0.502950000000    -0.116671   
N21      N      0.162710000000     0.369400000000     0.428520000000    -0.189815   
N22      N      0.176790000000     0.675900000000     0.468240000000    -0.110122   
N23      N      0.294090000000     0.795140000000     0.502150000000    -0.116619   
N24      N      0.100410000000     0.663650000000     0.421160000000    -0.17909    
N25      N      0.675680000000     0.470820000000     0.174550000000    -0.108223   
N26      N      0.794460000000     0.495230000000     0.294310000000    -0.116526   
N27      N      0.665240000000     0.429190000000     0.096300000000    -0.189917   
N28      N      0.174990000000     0.493070000000     0.292860000000    -0.107887   
N29      N      0.294810000000     0.465470000000     0.174660000000    -0.116535   
N30      N      0.163520000000     0.539660000000     0.367650000000    -0.190104   
N31      N      0.176840000000     0.499970000000     0.674150000000    -0.108225   
N32      N      0.295640000000     0.471550000000     0.793090000000    -0.11655    
N33      N      0.101200000000     0.545360000000     0.662770000000    -0.189894   
N34      N      0.795230000000     0.507680000000     0.674870000000    -0.108203   
N35      N      0.676930000000     0.477160000000     0.794130000000    -0.116517   
N36      N      0.806130000000     0.551320000000     0.597630000000    -0.190022   
N37      N      0.670750000000     0.680870000000     0.995140000000    -0.108381   
N38      N      0.788360000000     0.800590000000     0.963370000000    -0.115923   
N39      N      0.661480000000     0.605560000000     0.042560000000    -0.189245   
N40      N      0.801540000000     0.181680000000     0.003560000000    -0.105437   
N41      N      0.681690000000     0.299530000000     0.973840000000    -0.115862   
N42      N      0.877960000000     0.167980000000     0.047970000000    -0.190679   
N43      N      0.167890000000     0.786360000000     0.000790000000    -0.105478   
N44      N      0.289170000000     0.669740000000     0.972880000000    -0.11594    
N45      N      0.089690000000     0.798130000000     0.042640000000    -0.190869   
N46      N      0.299740000000     0.288610000000     0.972880000000    -0.107491   
N47      N      0.182620000000     0.168210000000     0.003270000000    -0.113605   
N48      N      0.374480000000     0.302260000000     0.926650000000    -0.189655   
N49      N      0.801700000000     0.005000000000     0.788390000000    -0.105499   
N50      N      0.682470000000     0.974650000000     0.669930000000    -0.116034   
N51      N      0.878940000000     0.048270000000     0.800810000000    -0.190479   
N52      N      0.181000000000     0.969620000000     0.800900000000    -0.107717   
N53      N      0.301190000000     0.997140000000     0.683070000000    -0.116887   
N54      N      0.102660000000     0.927590000000     0.808360000000    -0.18988    
N55      N      0.168820000000     0.964860000000     0.183200000000    -0.107434   
N56      N      0.287470000000     0.998270000000     0.301520000000    -0.115982   
N57      N      0.159070000000     0.917160000000     0.108780000000    -0.189992   
N58      N      0.668650000000     0.997480000000     0.288640000000    -0.108479   
N59      N      0.787940000000     0.972530000000     0.169490000000    -0.116061   
N60      N      0.658830000000     0.042970000000     0.364740000000    -0.189091   
N61      N      0.006720000000     0.180780000000     0.800410000000    -0.105379   
N62      N      0.976650000000     0.300100000000     0.681440000000    -0.116077   
N63      N      0.051500000000     0.103970000000     0.809890000000    -0.190284   
N64      N      0.967840000000     0.801290000000     0.788670000000    -0.107548   
N65      N      0.996580000000     0.682010000000     0.670050000000    -0.116905   
N66      N      0.926290000000     0.879420000000     0.801050000000    -0.19006    
N67      N      0.976950000000     0.667710000000     0.290990000000    -0.110737   
N68      N      0.962270000000     0.788900000000     0.171340000000    -0.11583    
N69      N      0.019010000000     0.665580000000     0.397180000000    -0.173889   
N70      N      0.997300000000     0.169280000000     0.182090000000    -0.108013   
N71      N      0.970980000000     0.289570000000     0.300100000000    -0.115993   
N72      N      0.043460000000     0.158760000000     0.106910000000    -0.19027    
O1       O      0.988860000000     0.095540000000     0.054590000000    -0.37666    
O2       O      0.977390000000     0.868870000000     0.047530000000    -0.370711   
O3       O      0.915890000000     0.982790000000     0.096750000000    -0.372038   
O4       O      0.045820000000     0.975920000000     0.101570000000    -0.372966   
O5       O      0.095770000000     0.975640000000     0.054980000000    -0.372872   
O6       O      0.869320000000     0.984650000000     0.046800000000    -0.371267   
O7       O      0.977610000000     0.915890000000     0.097150000000    -0.370155   
O8       O      0.984790000000     0.045960000000     0.101460000000    -0.375775   
O9       O      0.022360000000     0.941200000000     0.026350000000    -0.50352    
O10      O      0.944950000000     0.025390000000     0.026180000000    -0.502063   
O11      O      0.941420000000     0.944310000000     0.023570000000    -0.647671   
O12      O      0.025780000000     0.021870000000     0.029020000000    -0.646296   
O13      O      0.979970000000     0.873550000000     0.917020000000    -0.375246   
O14      O      0.993890000000     0.100210000000     0.924370000000    -0.37471    
O15      O      0.869300000000     0.924140000000     0.976280000000    -0.369066   
O16      O      0.095420000000     0.914550000000     0.990870000000    -0.375422   
O17      O      0.101300000000     0.044840000000     0.992350000000    -0.37157    
O18      O      0.874740000000     0.054180000000     0.989030000000    -0.374682   
O19      O      0.924320000000     0.992640000000     0.870240000000    -0.377203   
O20      O      0.053880000000     0.982910000000     0.874750000000    -0.37837    
O21      O      0.874300000000     0.993570000000     0.916750000000    -0.376036   
O22      O      0.100600000000     0.979670000000     0.924500000000    -0.376561   
O23      O      0.915700000000     0.874000000000     0.977460000000    -0.370425   
O24      O      0.924810000000     0.100610000000     0.991140000000    -0.377339   
O25      O      0.054870000000     0.094970000000     0.992740000000    -0.371474   
O26      O      0.045400000000     0.868170000000     0.987190000000    -0.37805    
O27      O      0.982270000000     0.923580000000     0.870510000000    -0.376817   
O28      O      0.994490000000     0.053200000000     0.874770000000    -0.37604    
O29      O      0.028910000000     0.024690000000     0.948040000000    -0.504346   
O30      O      0.944770000000     0.947250000000     0.942980000000    -0.505555   
O31      O      0.947550000000     0.028420000000     0.945230000000    -0.648155   
O32      O      0.025410000000     0.943310000000     0.945360000000    -0.646056   
O33      O      0.981840000000     0.370640000000     0.423110000000    -0.370293   
O34      O      0.993340000000     0.597190000000     0.415920000000    -0.358928   
O35      O      0.920010000000     0.485690000000     0.371140000000    -0.373736   
O36      O      0.049900000000     0.483410000000     0.370650000000    -0.374611   
O37      O      0.098260000000     0.485660000000     0.418820000000    -0.375503   
O38      O      0.871900000000     0.486490000000     0.419610000000    -0.370856   
O39      O      0.990260000000     0.547630000000     0.369160000000    -0.372704   
O40      O      0.981730000000     0.417460000000     0.373300000000    -0.373066   
O41      O      0.025760000000     0.524530000000     0.443060000000    -0.505797   
O42      O      0.944580000000     0.444960000000     0.445560000000    -0.506629   
O43      O      0.945280000000     0.526260000000     0.442520000000    -0.650289   
O44      O      0.025340000000     0.443840000000     0.444950000000    -0.647631   
O45      O      0.987950000000     0.601450000000     0.546350000000    -0.372517   
O46      O      0.983670000000     0.374380000000     0.553340000000    -0.372222   
O47      O      0.873240000000     0.552640000000     0.480940000000    -0.377703   
O48      O      0.099280000000     0.550230000000     0.479190000000    -0.372685   
O49      O      0.098050000000     0.419870000000     0.483920000000    -0.379334   
O50      O      0.871110000000     0.422600000000     0.484330000000    -0.375569   
O51      O      0.920700000000     0.494090000000     0.597830000000    -0.373904   
O52      O      0.051040000000     0.489620000000     0.597540000000    -0.375553   
O53      O      0.872390000000     0.493020000000     0.549550000000    -0.37756    
O54      O      0.099170000000     0.488160000000     0.549070000000    -0.377821   
O55      O      0.921800000000     0.600640000000     0.479140000000    -0.378145   
O56      O      0.918930000000     0.373790000000     0.484920000000    -0.374155   
O57      O      0.049450000000     0.371870000000     0.485740000000    -0.374886   
O58      O      0.051370000000     0.598900000000     0.478610000000    -0.370625   
O59      O      0.987630000000     0.554470000000     0.596020000000    -0.370343   
O60      O      0.984250000000     0.424100000000     0.600270000000    -0.371479   
O61      O      0.025950000000     0.446110000000     0.526410000000    -0.504901   
O62      O      0.945670000000     0.528320000000     0.523930000000    -0.506341   
O63      O      0.944310000000     0.447150000000     0.526520000000    -0.649583   
O64      O      0.026490000000     0.527400000000     0.523640000000    -0.6487     
O65      O      0.595740000000     0.986980000000     0.416520000000    -0.379546   
O66      O      0.369110000000     0.989040000000     0.424830000000    -0.371694   
O67      O      0.479270000000     0.920720000000     0.371740000000    -0.372094   
O68      O      0.483280000000     0.051090000000     0.372720000000    -0.374593   
O69      O      0.484680000000     0.099300000000     0.421160000000    -0.377345   
O70      O      0.480430000000     0.872190000000     0.419870000000    -0.373225   
O71      O      0.415670000000     0.989600000000     0.374830000000    -0.370723   
O72      O      0.545860000000     0.986190000000     0.369840000000    -0.375256   
O73      O      0.443130000000     0.026420000000     0.446760000000    -0.504446   
O74      O      0.523970000000     0.944680000000     0.443230000000    -0.50441    
O75      O      0.442410000000     0.945280000000     0.446350000000    -0.650477   
O76      O      0.524150000000     0.025930000000     0.443980000000    -0.649928   
O77      O      0.374270000000     0.987370000000     0.555150000000    -0.370439   
O78      O      0.600810000000     0.983390000000     0.546720000000    -0.3692     
O79      O      0.419330000000     0.872540000000     0.490930000000    -0.370979   
O80      O      0.420540000000     0.099430000000     0.490190000000    -0.37359    
O81      O      0.550470000000     0.098470000000     0.486830000000    -0.369489   
O82      O      0.549370000000     0.871580000000     0.483120000000    -0.37113    
O83      O      0.489180000000     0.919420000000     0.598530000000    -0.372179   
O84      O      0.494480000000     0.049690000000     0.598990000000    -0.370884   
O85      O      0.487930000000     0.871440000000     0.549860000000    -0.370168   
O86      O      0.492080000000     0.098200000000     0.550940000000    -0.371022   
O87      O      0.371240000000     0.921040000000     0.492280000000    -0.371974   
O88      O      0.597730000000     0.919840000000     0.481860000000    -0.373256   
O89      O      0.598660000000     0.050080000000     0.485530000000    -0.370367   
O90      O      0.372140000000     0.051250000000     0.491720000000    -0.370301   
O91      O      0.424200000000     0.986660000000     0.601780000000    -0.373657   
O92      O      0.554280000000     0.982900000000     0.596730000000    -0.369544   
O93      O      0.526860000000     0.025280000000     0.524760000000    -0.503848   
O94      O      0.445730000000     0.944850000000     0.527460000000    -0.504354   
O95      O      0.526500000000     0.944510000000     0.524260000000    -0.65202    
O96      O      0.446290000000     0.026070000000     0.528140000000    -0.649408   
O97      O      0.423120000000     0.369470000000     0.982140000000    -0.37468    
O98      O      0.417140000000     0.596450000000     0.983210000000    -0.372244   
O99      O      0.371980000000     0.478370000000     0.049260000000    -0.371981   
O100     O      0.372330000000     0.480860000000     0.918950000000    -0.37012    
O101     O      0.420740000000     0.482030000000     0.870760000000    -0.370855   
O102     O      0.420060000000     0.480530000000     0.097710000000    -0.371119   
O103     O      0.370330000000     0.546680000000     0.982070000000    -0.373613   
O104     O      0.373550000000     0.416480000000     0.982580000000    -0.373358   
O105     O      0.444090000000     0.523940000000     0.944050000000    -0.506243   
O106     O      0.445930000000     0.443010000000     0.024540000000    -0.505143   
O107     O      0.443280000000     0.524340000000     0.025310000000    -0.646999   
O108     O      0.446190000000     0.443270000000     0.943850000000    -0.650897   
O109     O      0.547340000000     0.599960000000     0.986250000000    -0.375693   
O110     O      0.553510000000     0.372820000000     0.982370000000    -0.372611   
O111     O      0.486140000000     0.549380000000     0.098240000000    -0.376432   
O112     O      0.481210000000     0.549690000000     0.871120000000    -0.37751    
O113     O      0.485920000000     0.419580000000     0.870970000000    -0.376047   
O114     O      0.482710000000     0.419270000000     0.097450000000    -0.369834   
O115     O      0.598440000000     0.484580000000     0.049550000000    -0.377633   
O116     O      0.598950000000     0.485850000000     0.919490000000    -0.371428   
O117     O      0.550150000000     0.482680000000     0.097840000000    -0.375798   
O118     O      0.550850000000     0.484150000000     0.871030000000    -0.372614   
O119     O      0.484820000000     0.597810000000     0.050020000000    -0.375008   
O120     O      0.484320000000     0.370890000000     0.049210000000    -0.372198   
O121     O      0.487460000000     0.371180000000     0.919180000000    -0.376665   
O122     O      0.480010000000     0.597980000000     0.919470000000    -0.376233   
O123     O      0.596800000000     0.552840000000     0.987470000000    -0.376962   
O124     O      0.600330000000     0.422580000000     0.982370000000    -0.37082    
O125     O      0.526930000000     0.445170000000     0.943910000000    -0.506112   
O126     O      0.524500000000     0.525940000000     0.024980000000    -0.507152   
O127     O      0.526770000000     0.444780000000     0.024960000000    -0.647784   
O128     O      0.525120000000     0.526700000000     0.943750000000    -0.648211   
Zr1      Zr     0.982140000000     0.981930000000     0.066410000000     1.41821    
Zr2      Zr     0.981870000000     0.903860000000     0.983390000000     1.41653    
Zr3      Zr     0.988520000000     0.065100000000     0.988420000000     1.41468    
Zr4      Zr     0.904570000000     0.987910000000     0.983020000000     1.41575    
Zr5      Zr     0.065670000000     0.981060000000     0.988600000000     1.41512    
Zr6      Zr     0.987980000000     0.987270000000     0.905470000000     1.41563    
Zr7      Zr     0.985080000000     0.483660000000     0.403880000000     1.42359    
Zr8      Zr     0.986350000000     0.566800000000     0.482060000000     1.42556    
Zr9      Zr     0.984610000000     0.405470000000     0.487150000000     1.41451    
Zr10     Zr     0.905030000000     0.487240000000     0.484590000000     1.42146    
Zr11     Zr     0.065970000000     0.485250000000     0.484220000000     1.42351    
Zr12     Zr     0.985710000000     0.488360000000     0.565160000000     1.41419    
Zr13     Zr     0.481980000000     0.985730000000     0.405080000000     1.4155     
Zr14     Zr     0.404440000000     0.986000000000     0.488770000000     1.41606    
Zr15     Zr     0.565440000000     0.985060000000     0.482790000000     1.42128    
Zr16     Zr     0.484420000000     0.904800000000     0.485060000000     1.41928    
Zr17     Zr     0.485300000000     0.065990000000     0.486050000000     1.4242     
Zr18     Zr     0.487970000000     0.984840000000     0.566320000000     1.42163    
Zr19     Zr     0.404790000000     0.482480000000     0.984260000000     1.4207     
Zr20     Zr     0.483150000000     0.565280000000     0.984650000000     1.41478    
Zr21     Zr     0.487420000000     0.403880000000     0.984210000000     1.42257    
Zr22     Zr     0.485050000000     0.484410000000     0.064960000000     1.42136    
Zr23     Zr     0.485680000000     0.484750000000     0.903800000000     1.42337    
Zr24     Zr     0.565780000000     0.486730000000     0.984480000000     1.41702    


