data_structure

_audit_creation_method RASPA-1.0
_audit_creation_date 2023-5-25
_audit_author_name 'Poobodin Mano'

_cell_length_a    33.4104
_cell_length_b    33.3299
_cell_length_c    33.4415
_cell_angle_alpha 90
_cell_angle_beta  90
_cell_angle_gamma 90
_cell_volume      37239.3

_symmetry_cell_setting          triclinic
_symmetry_space_group_name_Hall 'P 1'
_symmetry_space_group_name_H-M  'P 1'
_symmetry_Int_Tables_number     1

_symmetry_equiv_pos_as_xyz 'x,y,z'

loop_
_atom_site_label
_atom_site_type_symbol
_atom_site_fract_x
_atom_site_fract_y
_atom_site_fract_z
_atom_site_charge
C1       C      0.983900000000     0.090320000000     0.084450000000     0.401606   
C2       C      0.986120000000     0.885500000000     0.090890000000     0.399357   
C3       C      0.883120000000     0.988080000000     0.088770000000     0.405962   
C4       C      0.087860000000     0.991400000000     0.086710000000     0.396998   
C5       C      0.985510000000     0.877470000000     0.888020000000     0.405804   
C6       C      0.980200000000     0.082520000000     0.879710000000     0.396014   
C7       C      0.882620000000     0.881600000000     0.989590000000     0.401435   
C8       C      0.086860000000     0.883370000000     0.993350000000     0.398031   
C9       C      0.085630000000     0.087760000000     0.976260000000     0.396591   
C10      C      0.881160000000     0.086300000000     0.985600000000     0.398278   
C11      C      0.880690000000     0.982030000000     0.885530000000     0.395494   
C12      C      0.085320000000     0.978110000000     0.882960000000     0.398428   
C13      C      0.993140000000     0.385670000000     0.380710000000     0.399587   
C14      C      0.977210000000     0.589680000000     0.385930000000     0.392643   
C15      C      0.884040000000     0.478630000000     0.380410000000     0.392463   
C16      C      0.088210000000     0.491740000000     0.385870000000     0.3897     
C17      C      0.984760000000     0.584990000000     0.589070000000     0.394737   
C18      C      0.989650000000     0.379740000000     0.584300000000     0.40613    
C19      C      0.876420000000     0.582410000000     0.490620000000     0.397806   
C20      C      0.080810000000     0.591590000000     0.491300000000     0.391851   
C21      C      0.089950000000     0.387010000000     0.484510000000     0.395119   
C22      C      0.886070000000     0.378470000000     0.474670000000     0.401567   
C23      C      0.878830000000     0.474920000000     0.584620000000     0.400752   
C24      C      0.082020000000     0.486010000000     0.590610000000     0.404249   
C25      C      0.584910000000     0.995990000000     0.382300000000     0.391089   
C26      C      0.380880000000     0.003190000000     0.384740000000     0.398672   
C27      C      0.479920000000     0.892820000000     0.373780000000     0.394466   
C28      C      0.479530000000     0.096910000000     0.392230000000     0.397932   
C29      C      0.382080000000     0.981210000000     0.587620000000     0.393035   
C30      C      0.585650000000     0.981970000000     0.585980000000     0.400423   
C31      C      0.377780000000     0.887110000000     0.477220000000     0.397498   
C32      C      0.384700000000     0.090530000000     0.498530000000     0.405712   
C33      C      0.588650000000     0.085120000000     0.493090000000     0.40516    
C34      C      0.582990000000     0.881400000000     0.473060000000     0.392556   
C35      C      0.484180000000     0.873890000000     0.577270000000     0.395952   
C36      C      0.490250000000     0.077780000000     0.596050000000     0.398746   
C37      C      0.381000000000     0.383550000000     0.000720000000     0.394151   
C38      C      0.381040000000     0.586830000000     0.976160000000     0.408328   
C39      C      0.385650000000     0.497180000000     0.090760000000     0.396047   
C40      C      0.376420000000     0.475890000000     0.887930000000     0.399142   
C41      C      0.585270000000     0.587010000000     0.970540000000     0.399327   
C42      C      0.584530000000     0.382470000000     0.981230000000     0.393551   
C43      C      0.489610000000     0.596040000000     0.077930000000     0.402662   
C44      C      0.474200000000     0.579070000000     0.874850000000     0.393119   
C45      C      0.476970000000     0.374600000000     0.891290000000     0.389233   
C46      C      0.489600000000     0.391400000000     0.094850000000     0.38911    
C47      C      0.590430000000     0.493540000000     0.081640000000     0.396039   
C48      C      0.580740000000     0.479150000000     0.878320000000     0.390738   
C49      C      0.483730000000     0.152770000000     0.296110000000    -0.0275889  
C50      C      0.483510000000     0.349910000000     0.198440000000    -0.0300191  
C51      C      0.500340000000     0.321710000000     0.117600000000    -0.00756347 
C52      C      0.499280000000     0.379580000000     0.167230000000    -0.00751853 
C53      C      0.523240000000     0.263320000000     0.241520000000    -0.0514119  
C54      C      0.445070000000     0.242150000000     0.262660000000    -0.0523274  
C55      C      0.490910000000     0.281530000000     0.221930000000     0.061367   
C56      C      0.484450000000     0.294920000000     0.151140000000    -0.0298178  
C57      C      0.477390000000     0.223430000000     0.281730000000     0.0668308  
C58      C      0.484500000000     0.200800000000     0.350530000000    -0.0191862  
C59      C      0.516670000000     0.234500000000     0.271190000000    -0.0572812  
C60      C      0.468760000000     0.169610000000     0.380620000000    -0.0126879  
C61      C      0.467380000000     0.119540000000     0.322960000000    -0.00448715 
C62      C      0.451620000000     0.270980000000     0.233010000000    -0.0542575  
C63      C      0.480680000000     0.653360000000     0.173380000000    -0.0245832  
C64      C      0.488420000000     0.851670000000     0.269640000000    -0.0293837  
C65      C      0.471400000000     0.823140000000     0.350340000000    -0.0113989  
C66      C      0.473160000000     0.881530000000     0.301010000000    -0.00724813 
C67      C      0.446480000000     0.766080000000     0.226800000000    -0.0499166  
C68      C      0.523790000000     0.741850000000     0.205840000000    -0.0506312  
C69      C      0.479490000000     0.783380000000     0.246070000000     0.0634526  
C70      C      0.487390000000     0.796680000000     0.316710000000    -0.0265911  
C71      C      0.490760000000     0.723840000000     0.187300000000     0.0684236  
C72      C      0.484120000000     0.700640000000     0.118670000000    -0.0199595  
C73      C      0.451930000000     0.736610000000     0.197550000000    -0.0561403  
C74      C      0.500140000000     0.668760000000     0.089480000000    -0.0109546  
C75      C      0.496770000000     0.619060000000     0.147750000000    -0.00828279 
C76      C      0.518340000000     0.771440000000     0.234950000000    -0.0531791  
C77      C      0.472200000000     0.770990000000     0.620080000000    -0.026363   
C78      C      0.478880000000     0.675350000000     0.818410000000    -0.029785   
C79      C      0.460780000000     0.591190000000     0.803050000000    -0.00760973 
C80      C      0.463530000000     0.648980000000     0.852550000000    -0.00767383 
C81      C      0.437920000000     0.709900000000     0.730880000000    -0.0518696  
C82      C      0.515730000000     0.726170000000     0.704760000000    -0.0518862  
C83      C      0.470160000000     0.689280000000     0.748080000000     0.0616848  
C84      C      0.476060000000     0.620370000000     0.771110000000    -0.0299549  
C85      C      0.483520000000     0.747050000000     0.687830000000     0.0663118  
C86      C      0.482330000000     0.818280000000     0.674150000000    -0.0184718  
C87      C      0.444400000000     0.738630000000     0.701070000000    -0.0571275  
C88      C      0.499000000000     0.850460000000     0.645850000000    -0.0142496  
C89      C      0.488210000000     0.800640000000     0.588880000000    -0.0056666  
C90      C      0.509270000000     0.697560000000     0.734660000000    -0.0540212  
C91      C      0.477590000000     0.119920000000     0.698600000000    -0.0275314  
C92      C      0.482880000000     0.318060000000     0.795200000000    -0.0302154  
C93      C      0.466470000000     0.302100000000     0.879340000000    -0.00742816 
C94      C      0.467060000000     0.351920000000     0.821670000000    -0.00713829 
C95      C      0.443180000000     0.230380000000     0.760330000000    -0.0496828  
C96      C      0.521120000000     0.204590000000     0.744110000000    -0.0527868  
C97      C      0.475310000000     0.247460000000     0.781220000000     0.0611864  
C98      C      0.481960000000     0.270490000000     0.849890000000    -0.0301809  
C99      C      0.489020000000     0.187680000000     0.723080000000     0.0683795  
C100     C      0.488910000000     0.174390000000     0.651950000000    -0.020555   
C101     C      0.449840000000     0.200830000000     0.731370000000    -0.0569493  
C102     C      0.506260000000     0.146100000000     0.620180000000    -0.0147004  
C103     C      0.494010000000     0.088740000000     0.669160000000    -0.0041358  
C104     C      0.514490000000     0.234310000000     0.772850000000    -0.0525678  
C105     C      0.788140000000     0.326600000000     0.478240000000    -0.0310383  
C106     C      0.690430000000     0.129820000000     0.484800000000    -0.0318015  
C107     C      0.608830000000     0.155990000000     0.501400000000    -0.00866755 
C108     C      0.660550000000     0.099900000000     0.502390000000     0.0002056  
C109     C      0.731780000000     0.218030000000     0.520470000000    -0.0506474  
C110     C      0.751480000000     0.237130000000     0.441450000000    -0.0494466  
C111     C      0.711640000000     0.199030000000     0.489020000000     0.0654357  
C112     C      0.641150000000     0.183070000000     0.483650000000    -0.0269348  
C113     C      0.771290000000     0.256480000000     0.472920000000     0.0671728  
C114     C      0.840850000000     0.276460000000     0.477850000000    -0.0194518  
C115     C      0.761410000000     0.246510000000     0.512630000000    -0.0552282  
C116     C      0.871810000000     0.306640000000     0.461970000000    -0.0163046  
C117     C      0.815980000000     0.358790000000     0.461560000000    -0.00276581 
C118     C      0.721890000000     0.208560000000     0.449300000000    -0.0534776  
C119     C      0.776070000000     0.629600000000     0.479430000000    -0.0272459  
C120     C      0.681010000000     0.829030000000     0.481730000000    -0.0305884  
C121     C      0.598920000000     0.810270000000     0.458840000000    -0.0065746  
C122     C      0.654150000000     0.862270000000     0.465090000000    -0.00654599 
C123     C      0.719830000000     0.741640000000     0.442210000000    -0.0517057  
C124     C      0.733110000000     0.715800000000     0.520640000000    -0.051597   
C125     C      0.698000000000     0.758960000000     0.473540000000     0.0621335  
C126     C      0.628340000000     0.779400000000     0.475720000000    -0.030462   
C127     C      0.754980000000     0.698510000000     0.489310000000     0.0663606  
C128     C      0.825490000000     0.681890000000     0.489700000000    -0.0197986  
C129     C      0.748150000000     0.711720000000     0.449890000000    -0.0566629  
C130     C      0.856200000000     0.652050000000     0.506590000000    -0.0134893  
C131     C      0.804010000000     0.597250000000     0.496100000000    -0.00607114 
C132     C      0.704870000000     0.745790000000     0.512970000000    -0.0535734  
C133     C      0.286950000000     0.142790000000     0.493020000000    -0.0295099  
C134     C      0.191140000000     0.341010000000     0.496080000000    -0.0307053  
C135     C      0.110290000000     0.316700000000     0.473770000000    -0.00577757 
C136     C      0.162240000000     0.372430000000     0.479460000000    -0.00553504 
C137     C      0.233260000000     0.254830000000     0.455760000000    -0.0511437  
C138     C      0.249290000000     0.230110000000     0.534070000000    -0.0514854  
C139     C      0.212180000000     0.272110000000     0.487580000000     0.0625615  
C140     C      0.141710000000     0.288140000000     0.490750000000    -0.0305359  
C141     C      0.270070000000     0.212540000000     0.502210000000     0.0675951  
C142     C      0.339600000000     0.192570000000     0.498840000000    -0.0188195  
C143     C      0.262030000000     0.225300000000     0.462870000000    -0.0563142  
C144     C      0.369760000000     0.161490000000     0.514320000000    -0.0143699  
C145     C      0.313940000000     0.109440000000     0.508870000000    -0.00183091 
C146     C      0.220550000000     0.259700000000     0.526960000000    -0.0536416  
C147     C      0.276520000000     0.841530000000     0.488380000000    -0.030698   
C148     C      0.178930000000     0.644340000000     0.486160000000    -0.0296865  
C149     C      0.095290000000     0.663540000000     0.502100000000    -0.00755648 
C150     C      0.151120000000     0.611650000000     0.502060000000    -0.00741217 
C151     C      0.215930000000     0.731870000000     0.525160000000    -0.0516927  
C152     C      0.233890000000     0.755540000000     0.446980000000    -0.0522533  
C153     C      0.195300000000     0.714430000000     0.493090000000     0.0619693  
C154     C      0.125910000000     0.693930000000     0.486530000000    -0.0297263  
C155     C      0.254560000000     0.772900000000     0.479030000000     0.0667366  
C156     C      0.325390000000     0.788260000000     0.481640000000    -0.0183341  
C157     C      0.245420000000     0.760830000000     0.518320000000    -0.0570415  
C158     C      0.357140000000     0.816880000000     0.464620000000    -0.0195646  
C159     C      0.305400000000     0.872880000000     0.471580000000    -0.00493017 
C160     C      0.204570000000     0.726460000000     0.453790000000    -0.0535159  
C161     C      0.691430000000     0.480370000000     0.127910000000    -0.0301617  
C162     C      0.785870000000     0.483870000000     0.327500000000    -0.0302574  
C163     C      0.869300000000     0.466330000000     0.308990000000    -0.00784988 
C164     C      0.813460000000     0.468130000000     0.360540000000    -0.00706939 
C165     C      0.749610000000     0.444320000000     0.239380000000    -0.051455   
C166     C      0.733230000000     0.522720000000     0.214580000000    -0.0526948  
C167     C      0.769910000000     0.476420000000     0.257320000000     0.0614694  
C168     C      0.839140000000     0.482150000000     0.278390000000    -0.0298356  
C169     C      0.712950000000     0.490640000000     0.196640000000     0.0668179  
C170     C      0.642350000000     0.489590000000     0.180390000000    -0.018698   
C171     C      0.721250000000     0.451240000000     0.209380000000    -0.0570082  
C172     C      0.611440000000     0.507220000000     0.151340000000    -0.0179799  
C173     C      0.663090000000     0.497130000000     0.095950000000    -0.00493746 
C174     C      0.761400000000     0.515830000000     0.244720000000    -0.0533798  
C175     C      0.339130000000     0.495560000000     0.191970000000    -0.0263438  
C176     C      0.140220000000     0.501450000000     0.286870000000    -0.0302378  
C177     C      0.160170000000     0.486320000000     0.370470000000    -0.00710099 
C178     C      0.107570000000     0.485900000000     0.314950000000    -0.00704875 
C179     C      0.228800000000     0.460240000000     0.252290000000    -0.0518552  
C180     C      0.251600000000     0.537850000000     0.230160000000    -0.0516425  
C181     C      0.210240000000     0.493280000000     0.270350000000     0.061669   
C182     C      0.189900000000     0.501910000000     0.339370000000    -0.0300861  
C183     C      0.270030000000     0.504790000000     0.211980000000     0.0664175  
C184     C      0.286580000000     0.497110000000     0.142010000000    -0.0186464  
C185     C      0.258440000000     0.465800000000     0.223320000000    -0.0571209  
C186     C      0.315410000000     0.511540000000     0.109300000000    -0.0137762  
C187     C      0.370600000000     0.510170000000     0.162050000000    -0.00562339 
C188     C      0.221940000000     0.532280000000     0.259130000000    -0.053883   
C189     C      0.180760000000     0.480210000000     0.643720000000    -0.0299301  
C190     C      0.274460000000     0.482090000000     0.842770000000    -0.0304873  
C191     C      0.356200000000     0.464080000000     0.817960000000    -0.00476151 
C192     C      0.304380000000     0.466690000000     0.873830000000    -0.00287389 
C193     C      0.236530000000     0.440180000000     0.754260000000    -0.0507712  
C194     C      0.212670000000     0.517940000000     0.733780000000    -0.0500467  
C195     C      0.253750000000     0.473050000000     0.773850000000     0.0635962  
C196     C      0.323860000000     0.479960000000     0.789850000000    -0.0299001  
C197     C      0.195500000000     0.485050000000     0.714150000000     0.065255   
C198     C      0.127580000000     0.473140000000     0.692010000000    -0.0219233  
C199     C      0.207730000000     0.445980000000     0.724560000000    -0.0546756  
C200     C      0.095600000000     0.488910000000     0.663160000000    -0.0150503  
C201     C      0.152240000000     0.495280000000     0.611250000000    -0.00414845 
C202     C      0.241700000000     0.512140000000     0.763310000000    -0.053772   
C203     C      0.777370000000     0.476560000000     0.630340000000    -0.0275981  
C204     C      0.679720000000     0.472450000000     0.826430000000    -0.0301127  
C205     C      0.595460000000     0.483310000000     0.806150000000    -0.00717331 
C206     C      0.651100000000     0.488040000000     0.858420000000    -0.00677619 
C207     C      0.714250000000     0.512210000000     0.738290000000    -0.0507809  
C208     C      0.738540000000     0.434750000000     0.717240000000    -0.0525206  
C209     C      0.696160000000     0.479040000000     0.756570000000     0.0616972  
C210     C      0.627270000000     0.468280000000     0.776830000000    -0.030065   
C211     C      0.756700000000     0.467930000000     0.699060000000     0.0675706  
C212     C      0.826890000000     0.476640000000     0.683320000000    -0.0195769  
C213     C      0.744320000000     0.506850000000     0.709770000000    -0.0573547  
C214     C      0.860120000000     0.462140000000     0.655080000000    -0.0134231  
C215     C      0.807660000000     0.461630000000     0.599540000000    -0.00427639 
C216     C      0.708530000000     0.440120000000     0.745830000000    -0.0532711  
C217     C      0.833650000000     0.781830000000     0.977750000000    -0.0273106  
C218     C      0.634560000000     0.686780000000     0.974710000000    -0.0326457  
C219     C      0.656390000000     0.603710000000     0.958330000000    -0.00470479 
C220     C      0.603110000000     0.658000000000     0.957860000000    -0.00210232 
C221     C      0.723410000000     0.725000000000     0.938160000000    -0.050477   
C222     C      0.744970000000     0.742630000000     0.017020000000    -0.0496135  
C223     C      0.704510000000     0.704830000000     0.969700000000     0.0609878  
C224     C      0.685480000000     0.634910000000     0.975030000000    -0.0319608  
C225     C      0.764090000000     0.762550000000     0.985470000000     0.0661414  
C226     C      0.782300000000     0.832870000000     0.983690000000    -0.0207486  
C227     C      0.752890000000     0.753750000000     0.945850000000    -0.0567383  
C228     C      0.811780000000     0.863400000000     0.001440000000    -0.0094644  
C229     C      0.865700000000     0.809600000000     0.995160000000    -0.00499888 
C230     C      0.715340000000     0.714050000000     0.009350000000    -0.0514641  
C231     C      0.780060000000     0.133740000000     0.976210000000    -0.0295296  
C232     C      0.684380000000     0.332430000000     0.980560000000    -0.0323202  
C233     C      0.600350000000     0.310910000000     0.970990000000    -0.00650944 
C234     C      0.654640000000     0.364320000000     0.966600000000    -0.00642131 
C235     C      0.718700000000     0.243460000000     0.940150000000    -0.0512991  
C236     C      0.743510000000     0.222370000000     0.017180000000    -0.0513029  
C237     C      0.701530000000     0.262480000000     0.973340000000     0.0599219  
C238     C      0.632700000000     0.281630000000     0.984740000000    -0.0321688  
C239     C      0.760660000000     0.203370000000     0.984030000000     0.0663397  
C240     C      0.830450000000     0.185810000000     0.975150000000    -0.0184206  
C241     C      0.748140000000     0.214130000000     0.945320000000    -0.057468   
C242     C      0.862820000000     0.157910000000     0.991930000000    -0.0195392  
C243     C      0.809470000000     0.102630000000     0.992520000000    -0.00710084 
C244     C      0.714220000000     0.251740000000     0.012030000000    -0.0517131  
C245     C      0.332120000000     0.686600000000     0.979370000000    -0.0291232  
C246     C      0.134580000000     0.782650000000     0.990120000000    -0.035274   
C247     C      0.158480000000     0.866140000000     0.000280000000    -0.00610459 
C248     C      0.104590000000     0.812720000000     0.007220000000    -0.000978353
C249     C      0.225460000000     0.746160000000     0.023390000000    -0.0482472  
C250     C      0.240990000000     0.722430000000     0.944690000000    -0.0512984  
C251     C      0.204440000000     0.764070000000     0.991880000000     0.0609688  
C252     C      0.185820000000     0.833660000000     0.983270000000    -0.0306905  
C253     C      0.262170000000     0.704700000000     0.976180000000     0.0664498  
C254     C      0.281010000000     0.635000000000     0.983210000000    -0.0222014  
C255     C      0.254090000000     0.716630000000     0.015750000000    -0.0542875  
C256     C      0.309380000000     0.602850000000     0.966650000000    -0.00860053 
C257     C      0.362810000000     0.657340000000     0.962190000000    -0.00219711 
C258     C      0.212270000000     0.751880000000     0.952340000000    -0.0532349  
C259     C      0.184770000000     0.137200000000     0.984870000000    -0.0285147  
C260     C      0.281160000000     0.335420000000     0.994240000000    -0.0353081  
C261     C      0.363040000000     0.312610000000     0.013940000000    -0.00498752 
C262     C      0.309660000000     0.366610000000     0.012090000000    -0.00351025 
C263     C      0.240780000000     0.246300000000     0.029020000000    -0.0499645  
C264     C      0.224710000000     0.226440000000     0.949380000000    -0.0522488  
C265     C      0.261980000000     0.265520000000     0.998360000000     0.0584309  
C266     C      0.332240000000     0.283690000000     0.996070000000    -0.0349512  
C267     C      0.203610000000     0.207130000000     0.980050000000     0.0647934  
C268     C      0.133430000000     0.188580000000     0.981680000000    -0.0216375  
C269     C      0.211810000000     0.217360000000     0.020090000000    -0.0557766  
C270     C      0.102610000000     0.159160000000     0.964120000000    -0.0132004  
C271     C      0.156960000000     0.105580000000     0.966800000000    -0.00663561 
C272     C      0.253660000000     0.255410000000     0.958310000000    -0.0529265  
C273     C      0.790310000000     0.018170000000     0.829800000000    -0.027162   
C274     C      0.642050000000     0.966390000000     0.680810000000    -0.0282307  
C275     C      0.650640000000     0.010000000000     0.605830000000    -0.00436697 
C276     C      0.604570000000     0.977170000000     0.656920000000    -0.00794086 
C277     C      0.695730000000     0.007910000000     0.744230000000    -0.0489521  
C278     C      0.772880000000     0.983030000000     0.724680000000    -0.053903   
C279     C      0.703920000000     0.995740000000     0.704890000000     0.061204   
C280     C      0.685540000000     0.999380000000     0.633350000000    -0.0328887  
C281     C      0.764810000000     0.994950000000     0.764160000000     0.0631059  
C282     C      0.810680000000     0.954170000000     0.803070000000    -0.0204843  
C283     C      0.725290000000     0.006600000000     0.773780000000    -0.0523393  
C284     C      0.851840000000     0.955880000000     0.823240000000    -0.015741   
C285     C      0.828970000000     0.022620000000     0.854030000000    -0.00680212 
C286     C      0.742840000000     0.982200000000     0.695760000000    -0.0506308  
C287     C      0.185300000000     0.982320000000     0.833930000000    -0.03278    
C288     C      0.281750000000     0.975990000000     0.637040000000    -0.0295783  
C289     C      0.365520000000     0.986790000000     0.659230000000    -0.00950158 
C290     C      0.311260000000     0.991060000000     0.605580000000    -0.00856964 
C291     C      0.245590000000     0.016530000000     0.724390000000    -0.0495055  
C292     C      0.222040000000     0.939210000000     0.746760000000    -0.0523406  
C293     C      0.263840000000     0.983220000000     0.706540000000     0.060419   
C294     C      0.333040000000     0.972210000000     0.687930000000    -0.029011   
C295     C      0.204000000000     0.972530000000     0.764810000000     0.0657522  
C296     C      0.134170000000     0.980440000000     0.782570000000    -0.0207904  
C297     C      0.215810000000     0.011380000000     0.753250000000    -0.0555333  
C298     C      0.102180000000     0.965530000000     0.812000000000    -0.0176181  
C299     C      0.156390000000     0.967300000000     0.865950000000    -0.00357516 
C300     C      0.251660000000     0.944370000000     0.717760000000    -0.0534102  
C301     C      0.136400000000     0.003640000000     0.187480000000    -0.0226158  
C302     C      0.333230000000     0.009690000000     0.284700000000    -0.0283411  
C303     C      0.309770000000     0.016130000000     0.368400000000    -0.0048191  
C304     C      0.363800000000     0.023650000000     0.315720000000    -0.00705594 
C305     C      0.242630000000     0.047350000000     0.249980000000    -0.0514672  
C306     C      0.227540000000     0.970200000000     0.220850000000    -0.051626   
C307     C      0.263570000000     0.014610000000     0.265960000000     0.0638601  
C308     C      0.281440000000     0.002520000000     0.335080000000    -0.0290801  
C309     C      0.206700000000     0.002900000000     0.204830000000     0.0708286  
C310     C      0.185570000000     0.016490000000     0.136460000000    -0.0167972  
C311     C      0.214300000000     0.041660000000     0.219700000000    -0.0574399  
C312     C      0.159800000000     0.998100000000     0.103140000000    -0.0209208  
C313     C      0.106870000000     0.985340000000     0.157740000000    -0.0129637  
C314     C      0.255690000000     0.975830000000     0.251190000000    -0.0545108  
C315     C      0.634200000000     0.995650000000     0.282440000000    -0.0323613  
C316     C      0.834370000000     0.997240000000     0.189490000000    -0.0316952  
C317     C      0.811500000000     0.986420000000     0.105950000000    -0.0123884  
C318     C      0.865540000000     0.981130000000     0.160070000000    -0.00241358 
C319     C      0.744090000000     0.958440000000     0.223260000000    -0.0492911  
C320     C      0.724510000000     0.035860000000     0.248850000000    -0.0521013  
C321     C      0.764300000000     0.991470000000     0.207070000000     0.0617651  
C322     C      0.783680000000     0.002600000000     0.138310000000    -0.0216759  
C323     C      0.704180000000     0.002830000000     0.264920000000     0.0698514  
C324     C      0.685180000000     0.993020000000     0.333950000000    -0.0237236  
C325     C      0.714300000000     0.963930000000     0.252030000000    -0.0587917  
C326     C      0.656170000000     0.007950000000     0.366200000000    -0.0144803  
C327     C      0.602500000000     0.010540000000     0.311940000000    -0.00199658 
C328     C      0.754380000000     0.030360000000     0.220140000000    -0.0503394  
C329     C      0.983320000000     0.278380000000     0.630710000000    -0.026573   
C330     C      0.986570000000     0.181310000000     0.827740000000    -0.0308183  
C331     C      0.970050000000     0.097700000000     0.808090000000    -0.00757619 
C332     C      0.970890000000     0.153330000000     0.860330000000    -0.00430878 
C333     C      0.945920000000     0.217890000000     0.740300000000    -0.0509432  
C334     C      0.023820000000     0.237920000000     0.717190000000    -0.0498709  
C335     C      0.978450000000     0.198220000000     0.758050000000     0.0615499  
C336     C      0.985490000000     0.128610000000     0.777970000000    -0.0303828  
C337     C      0.991310000000     0.257770000000     0.699660000000     0.0629084  
C338     C      0.985230000000     0.328370000000     0.683270000000    -0.0221804  
C339     C      0.952160000000     0.247450000000     0.711310000000    -0.0553411  
C340     C      0.001430000000     0.360760000000     0.654920000000    -0.0103956  
C341     C      0.999610000000     0.307890000000     0.599700000000    -0.00586879 
C342     C      0.017590000000     0.208400000000     0.746190000000    -0.053047   
C343     C      0.002230000000     0.776290000000     0.841810000000    -0.0232035  
C344     C      0.972010000000     0.679130000000     0.646390000000    -0.0281755  
C345     C      0.018890000000     0.605880000000     0.651490000000    -0.0688001  
C346     C      0.983230000000     0.656220000000     0.608350000000    -0.0104424  
C347     C      0.030270000000     0.721610000000     0.723430000000    -0.0475369  
C348     C      0.957330000000     0.728830000000     0.763700000000    -0.0520065  
C349     C      0.997730000000     0.697800000000     0.711830000000     0.061678   
C350     C      0.004850000000     0.629150000000     0.688340000000    -0.00326334 
C351     C      0.989310000000     0.753950000000     0.774050000000     0.0659314  
C352     C      0.993220000000     0.825150000000     0.789240000000    -0.0220707  
C353     C      0.026350000000     0.749240000000     0.754590000000    -0.0543311  
C354     C      0.976100000000     0.856650000000     0.817820000000    -0.0109222  
C355     C      0.985790000000     0.804810000000     0.873730000000    -0.00654858 
C356     C      0.961510000000     0.700590000000     0.733110000000    -0.0527212  
C357     C      0.975570000000     0.786710000000     0.141990000000    -0.028391   
C358     C      0.979110000000     0.690980000000     0.339380000000    -0.0322345  
C359     C      0.964860000000     0.608040000000     0.315580000000    -0.00643445 
C360     C      0.964320000000     0.660900000000     0.370470000000    -0.00637684 
C361     C      0.938690000000     0.729540000000     0.252330000000    -0.0509209  
C362     C      0.016550000000     0.750620000000     0.229950000000    -0.0514559  
C363     C      0.971370000000     0.710510000000     0.270400000000     0.0601177  
C364     C      0.979590000000     0.640570000000     0.287080000000    -0.0320822  
C365     C      0.983890000000     0.769350000000     0.211610000000     0.0672802  
C366     C      0.977910000000     0.839050000000     0.192160000000    -0.018632   
C367     C      0.944770000000     0.758870000000     0.223150000000    -0.0578363  
C368     C      0.994830000000     0.869800000000     0.162560000000    -0.0185591  
C369     C      0.992440000000     0.814280000000     0.109730000000    -0.00614696 
C370     C      0.010490000000     0.721450000000     0.259200000000    -0.0514051  
C371     C      0.000440000000     0.190480000000     0.131990000000    -0.0186673  
C372     C      0.990340000000     0.286790000000     0.329280000000    -0.036504   
C373     C      0.006830000000     0.370430000000     0.309780000000     0.00068002 
C374     C      0.004930000000     0.315020000000     0.362130000000     0.00292466 
C375     C      0.032960000000     0.249980000000     0.243210000000    -0.0528012  
C376     C      0.955660000000     0.231430000000     0.217030000000    -0.0480759  
C377     C      0.000050000000     0.269960000000     0.259870000000     0.0658164  
C378     C      0.992410000000     0.339450000000     0.279360000000    -0.0358235  
C379     C      0.988550000000     0.211540000000     0.200340000000     0.0664233  
C380     C      0.991830000000     0.140890000000     0.183940000000    -0.0216797  
C381     C      0.027370000000     0.220850000000     0.213710000000    -0.0542586  
C382     C      0.973970000000     0.109960000000     0.155070000000    -0.0108894  
C383     C      0.983430000000     0.162740000000     0.099860000000    -0.013851   
C384     C      0.961210000000     0.260380000000     0.246640000000    -0.0549299  
H1       H      0.927760000000     0.929050000000     0.045440000000     0.218696   
H2       H      0.041640000000     0.044900000000     0.040170000000     0.208419   
H3       H      0.926400000000     0.039430000000     0.927310000000     0.211771   
H4       H      0.041510000000     0.925150000000     0.930860000000     0.219043   
H5       H      0.924200000000     0.541030000000     0.428180000000     0.208316   
H6       H      0.044560000000     0.431940000000     0.428300000000     0.211394   
H7       H      0.927310000000     0.422830000000     0.539300000000     0.216874   
H8       H      0.036860000000     0.542330000000     0.544410000000     0.216989   
H9       H      0.423880000000     0.935610000000     0.423170000000     0.215708   
H10      H      0.541500000000     0.047270000000     0.432060000000     0.213579   
H11      H      0.540210000000     0.922170000000     0.535970000000     0.218353   
H12      H      0.429020000000     0.039300000000     0.547760000000     0.218581   
H13      H      0.428680000000     0.547730000000     0.039280000000     0.217611   
H14      H      0.423270000000     0.423390000000     0.935260000000     0.210082   
H15      H      0.543300000000     0.432310000000     0.043380000000     0.207355   
H16      H      0.537370000000     0.537890000000     0.920330000000     0.209894   
H17      H      0.426120000000     0.284510000000     0.218310000000     0.0421753  
H18      H      0.473160000000     0.147120000000     0.265040000000     0.037263   
H19      H      0.474920000000     0.231360000000     0.360030000000     0.0477173  
H20      H      0.533110000000     0.316660000000     0.114560000000     0.0369948  
H21      H      0.434580000000     0.116860000000     0.317960000000     0.0511537  
H22      H      0.493660000000     0.360030000000     0.228500000000     0.036985   
H23      H      0.495210000000     0.263760000000     0.145760000000     0.0354371  
H24      H      0.484210000000     0.408930000000     0.172130000000     0.0411901  
H25      H      0.485280000000     0.174400000000     0.409100000000     0.0524743  
H26      H      0.414700000000     0.233820000000     0.270360000000     0.0562866  
H27      H      0.481240000000     0.090780000000     0.313370000000     0.0395262  
H28      H      0.553610000000     0.271070000000     0.233270000000     0.0464429  
H29      H      0.517050000000     0.151530000000     0.296140000000     0.0381212  
H30      H      0.486080000000     0.312070000000     0.089140000000     0.0397693  
H31      H      0.450180000000     0.350300000000     0.198070000000     0.0386454  
H32      H      0.451120000000     0.294650000000     0.150110000000     0.0381483  
H33      H      0.542160000000     0.220380000000     0.285350000000     0.0442261  
H34      H      0.517830000000     0.200280000000     0.350960000000     0.0367875  
H35      H      0.531860000000     0.384140000000     0.172320000000     0.0379075  
H36      H      0.363310000000     0.190850000000     0.357050000000     0.152212   
H37      H      0.544340000000     0.784350000000     0.249350000000     0.0440721  
H38      H      0.489460000000     0.647690000000     0.205000000000     0.0443007  
H39      H      0.494820000000     0.730860000000     0.109340000000     0.0483576  
H40      H      0.438760000000     0.817720000000     0.353000000000     0.0666825  
H41      H      0.528850000000     0.614880000000     0.155050000000     0.0768489  
H42      H      0.478260000000     0.861950000000     0.239640000000     0.0375704  
H43      H      0.476860000000     0.765420000000     0.321990000000     0.0435684  
H44      H      0.489210000000     0.910440000000     0.296680000000     0.0403168  
H45      H      0.484770000000     0.673630000000     0.060390000000     0.0512092  
H46      H      0.553820000000     0.732320000000     0.198190000000     0.0610073  
H47      H      0.480810000000     0.591110000000     0.156430000000     0.0477537  
H48      H      0.416420000000     0.774960000000     0.235070000000     0.0513371  
H49      H      0.447380000000     0.653690000000     0.171770000000     0.0398634  
H50      H      0.485630000000     0.813490000000     0.378820000000     0.0500043  
H51      H      0.521760000000     0.851590000000     0.269780000000     0.0385102  
H52      H      0.520720000000     0.796640000000     0.317580000000     0.0389592  
H53      H      0.425950000000     0.723210000000     0.183580000000     0.0453447  
H54      H      0.450810000000     0.701080000000     0.117090000000     0.0377318  
H55      H      0.440840000000     0.887250000000     0.295470000000     0.043859   
H56      H      0.606250000000     0.675710000000     0.116960000000     0.159707   
H57      H      0.534760000000     0.682370000000     0.747670000000     0.0429267  
H58      H      0.478600000000     0.739980000000     0.609520000000     0.0380041  
H59      H      0.495450000000     0.822510000000     0.704480000000     0.046394   
H60      H      0.427850000000     0.587820000000     0.799540000000     0.0434466  
H61      H      0.519550000000     0.792360000000     0.581350000000     0.0517678  
H62      H      0.469300000000     0.706800000000     0.824270000000     0.0375529  
H63      H      0.464260000000     0.610630000000     0.741540000000     0.0359955  
H64      H      0.479020000000     0.658300000000     0.880480000000     0.0415373  
H65      H      0.486860000000     0.879730000000     0.656210000000     0.0513137  
H66      H      0.546020000000     0.732600000000     0.695150000000     0.0576928  
H67      H      0.470110000000     0.797290000000     0.561170000000     0.0410223  
H68      H      0.407710000000     0.704080000000     0.741070000000     0.0467624  
H69      H      0.439140000000     0.774490000000     0.622510000000     0.0368014  
H70      H      0.474520000000     0.561330000000     0.797440000000     0.0397231  
H71      H      0.512220000000     0.674600000000     0.818060000000     0.0386653  
H72      H      0.509340000000     0.618840000000     0.770010000000     0.0374273  
H73      H      0.419030000000     0.754640000000     0.688830000000     0.0423823  
H74      H      0.449350000000     0.822370000000     0.676960000000     0.0359869  
H75      H      0.431020000000     0.654810000000     0.856730000000     0.0443111  
H76      H      0.602110000000     0.811940000000     0.649330000000     0.154517   
H77      H      0.539920000000     0.247360000000     0.788100000000     0.0431766  
H78      H      0.483360000000     0.109120000000     0.729560000000     0.0382336  
H79      H      0.502200000000     0.204810000000     0.648170000000     0.0525953  
H80      H      0.433760000000     0.297580000000     0.883550000000     0.0369114  
H81      H      0.525170000000     0.081010000000     0.677920000000     0.0466129  
H82      H      0.472810000000     0.323770000000     0.763970000000     0.037976   
H83      H      0.471020000000     0.240530000000     0.859710000000     0.0355499  
H84      H      0.481950000000     0.380260000000     0.812340000000     0.0404366  
H85      H      0.495220000000     0.156830000000     0.590690000000     0.0652288  
H86      H      0.551450000000     0.195090000000     0.737710000000     0.0599517  
H87      H      0.475730000000     0.061010000000     0.672070000000     0.0414523  
H88      H      0.412920000000     0.240470000000     0.766130000000     0.0477485  
H89      H      0.444620000000     0.122530000000     0.694480000000     0.0423862  
H90      H      0.481120000000     0.296910000000     0.908750000000     0.0393497  
H91      H      0.516230000000     0.318420000000     0.795550000000     0.0398404  
H92      H      0.515270000000     0.270170000000     0.850870000000     0.038007   
H93      H      0.424580000000     0.188680000000     0.715150000000     0.0487198  
H94      H      0.456020000000     0.177290000000     0.647190000000     0.0549665  
H95      H      0.434440000000     0.355500000000     0.816130000000     0.0376143  
H96      H      0.579600000000     0.088820000000     0.607620000000     0.153517   
H97      H      0.706830000000     0.194190000000     0.424480000000     0.0507209  
H98      H      0.757110000000     0.333420000000     0.468170000000     0.0378753  
H99      H      0.849080000000     0.245690000000     0.467770000000     0.0496807  
H100     H      0.606470000000     0.162570000000     0.533830000000     0.068087   
H101     H      0.810770000000     0.361630000000     0.428870000000     0.0404128  
H102     H      0.721000000000     0.121280000000     0.494950000000     0.0454016  
H103     H      0.634830000000     0.214540000000     0.492850000000     0.0421971  
H104     H      0.666490000000     0.070030000000     0.488850000000     0.0549215  
H105     H      0.900250000000     0.300560000000     0.478150000000     0.0530487  
H106     H      0.758780000000     0.244530000000     0.410770000000     0.0592221  
H107     H      0.807540000000     0.387900000000     0.475440000000     0.0403404  
H108     H      0.724210000000     0.210910000000     0.551150000000     0.0523027  
H109     H      0.788770000000     0.327850000000     0.511520000000     0.0413889  
H110     H      0.579710000000     0.163900000000     0.487350000000     0.0492385  
H111     H      0.689640000000     0.127920000000     0.451570000000     0.0618627  
H112     H      0.639740000000     0.181510000000     0.450400000000     0.0438716  
H113     H      0.776250000000     0.261020000000     0.537490000000     0.0459384  
H114     H      0.841960000000     0.276610000000     0.511140000000     0.0386306  
H115     H      0.666120000000     0.097240000000     0.535070000000     0.0447253  
H116     H      0.828830000000     0.313230000000     0.375430000000     0.151439   
H117     H      0.688560000000     0.758790000000     0.537750000000     0.0452243  
H118     H      0.744630000000     0.620430000000     0.485550000000     0.0378917  
H119     H      0.830910000000     0.712090000000     0.502900000000     0.0482672  
H120     H      0.597840000000     0.806910000000     0.425770000000     0.0400149  
H121     H      0.795400000000     0.590840000000     0.527570000000     0.0527094  
H122     H      0.712580000000     0.836200000000     0.473860000000     0.0381847  
H123     H      0.620500000000     0.749400000000     0.463340000000     0.0375897  
H124     H      0.661420000000     0.890590000000     0.481080000000     0.042519   
H125     H      0.885890000000     0.661110000000     0.494600000000     0.0520993  
H126     H      0.738200000000     0.706110000000     0.551130000000     0.0587749  
H127     H      0.799210000000     0.569280000000     0.478630000000     0.0390063  
H128     H      0.714980000000     0.751550000000     0.411760000000     0.0465787  
H129     H      0.780080000000     0.631490000000     0.446420000000     0.0362802  
H130     H      0.568610000000     0.803170000000     0.470600000000     0.0426644  
H131     H      0.678480000000     0.828480000000     0.514940000000     0.042116   
H132     H      0.624980000000     0.778110000000     0.508840000000     0.0417603  
H133     H      0.764830000000     0.699090000000     0.425170000000     0.0424427  
H134     H      0.830070000000     0.684530000000     0.456800000000     0.0355292  
H135     H      0.661490000000     0.866810000000     0.432970000000     0.0398845  
H136     H      0.885280000000     0.698330000000     0.601460000000     0.154441   
H137     H      0.204650000000     0.272600000000     0.552050000000     0.0461878  
H138     H      0.255470000000     0.135500000000     0.501200000000     0.037106   
H139     H      0.347400000000     0.222700000000     0.510970000000     0.0538269  
H140     H      0.108830000000     0.312570000000     0.440800000000     0.0374644  
H141     H      0.307030000000     0.104350000000     0.540980000000     0.038553   
H142     H      0.222190000000     0.350080000000     0.488070000000     0.0376748  
H143     H      0.135730000000     0.257530000000     0.478810000000     0.03747    
H144     H      0.167340000000     0.401040000000     0.495800000000     0.0417444  
H145     H      0.398860000000     0.168460000000     0.499750000000     0.0675276  
H146     H      0.255230000000     0.220580000000     0.564450000000     0.0582774  
H147     H      0.306360000000     0.081360000000     0.492600000000     0.041342   
H148     H      0.227080000000     0.264100000000     0.425350000000     0.0464576  
H149     H      0.289110000000     0.143680000000     0.459780000000     0.042284   
H150     H      0.080680000000     0.307990000000     0.486220000000     0.0436485  
H151     H      0.188760000000     0.340400000000     0.529310000000     0.0429641  
H152     H      0.138760000000     0.287040000000     0.523920000000     0.043437   
H153     H      0.277700000000     0.212210000000     0.437740000000     0.0452616  
H154     H      0.342140000000     0.194300000000     0.465680000000     0.0524451  
H155     H      0.169550000000     0.377810000000     0.447460000000     0.036832   
H156     H      0.325280000000     0.146290000000     0.599720000000     0.15045    
H157     H      0.189390000000     0.713190000000     0.428460000000     0.0436742  
H158     H      0.245420000000     0.850940000000     0.480990000000     0.0365952  
H159     H      0.330740000000     0.757460000000     0.469870000000     0.0469121  
H160     H      0.091300000000     0.668260000000     0.534780000000     0.0408305  
H161     H      0.297600000000     0.878680000000     0.439790000000     0.0393096  
H162     H      0.209900000000     0.637570000000     0.496460000000     0.0366131  
H163     H      0.117150000000     0.724300000000     0.497270000000     0.0374995  
H164     H      0.159580000000     0.582850000000     0.487570000000     0.0407535  
H165     H      0.386250000000     0.808150000000     0.478210000000     0.0533032  
H166     H      0.240770000000     0.764420000000     0.416600000000     0.0576823  
H167     H      0.300590000000     0.901340000000     0.488250000000     0.0398885  
H168     H      0.209330000000     0.722690000000     0.555520000000     0.0468071  
H169     H      0.279470000000     0.840570000000     0.521550000000     0.0381599  
H170     H      0.066070000000     0.669810000000     0.487480000000     0.0421603  
H171     H      0.178720000000     0.643700000000     0.452850000000     0.0394582  
H172     H      0.125050000000     0.694100000000     0.453240000000     0.0391059  
H173     H      0.261170000000     0.773600000000     0.543570000000     0.0426116  
H174     H      0.328680000000     0.786890000000     0.514770000000     0.0358301  
H175     H      0.156220000000     0.608250000000     0.534750000000     0.0408339  
H176     H      0.304070000000     0.824420000000     0.386630000000     0.151171   
H177     H      0.776400000000     0.541210000000     0.258240000000     0.0426374  
H178     H      0.722760000000     0.486850000000     0.118630000000     0.036854   
H179     H      0.637070000000     0.502030000000     0.210860000000     0.0470446  
H180     H      0.872500000000     0.433380000000     0.304830000000     0.0442456  
H181     H      0.671930000000     0.528540000000     0.089110000000     0.042119   
H182     H      0.754770000000     0.473920000000     0.334230000000     0.0367714  
H183     H      0.847930000000     0.470940000000     0.248290000000     0.036497   
H184     H      0.805200000000     0.483270000000     0.389000000000     0.0392884  
H185     H      0.581780000000     0.495010000000     0.160290000000     0.051896   
H186     H      0.726890000000     0.553210000000     0.205350000000     0.0590436  
H187     H      0.667330000000     0.479360000000     0.068130000000     0.0387728  
H188     H      0.755670000000     0.413860000000     0.248890000000     0.0473836  
H189     H      0.687730000000     0.447200000000     0.129590000000     0.0369082  
H190     H      0.898860000000     0.480170000000     0.302460000000     0.0403203  
H191     H      0.786350000000     0.517290000000     0.327690000000     0.0380444  
H192     H      0.840540000000     0.515530000000     0.277910000000     0.0371927  
H193     H      0.705650000000     0.425960000000     0.196350000000     0.0428642  
H194     H      0.638050000000     0.456490000000     0.182230000000     0.035247   
H195     H      0.807920000000     0.435460000000     0.364500000000     0.0413447  
H196     H      0.663610000000     0.587320000000     0.135050000000     0.152286   
H197     H      0.208040000000     0.558310000000     0.272590000000     0.0435448  
H198     H      0.347960000000     0.505980000000     0.222340000000     0.0383383  
H199     H      0.255810000000     0.508010000000     0.135200000000     0.0473742  
H200     H      0.165950000000     0.453850000000     0.375550000000     0.0373922  
H201     H      0.375660000000     0.542790000000     0.166770000000     0.0520095  
H202     H      0.133340000000     0.490880000000     0.256040000000     0.03665    
H203     H      0.220430000000     0.491730000000     0.348040000000     0.0361678  
H204     H      0.079100000000     0.501440000000     0.307360000000     0.0402736  
H205     H      0.307050000000     0.495330000000     0.081450000000     0.0528166  
H206     H      0.260100000000     0.568000000000     0.221600000000     0.0576113  
H207     H      0.399240000000     0.494550000000     0.168720000000     0.0408797  
H208     H      0.220070000000     0.430080000000     0.260600000000     0.0455522  
H209     H      0.338780000000     0.462140000000     0.192110000000     0.0370207  
H210     H      0.166060000000     0.502100000000     0.399180000000     0.0400055  
H211     H      0.139740000000     0.534870000000     0.286740000000     0.0390031  
H212     H      0.189660000000     0.535330000000     0.339580000000     0.0386529  
H213     H      0.272060000000     0.439750000000     0.209610000000     0.0422535  
H214     H      0.285630000000     0.463700000000     0.141580000000     0.0361592  
H215     H      0.103010000000     0.453360000000     0.309180000000     0.0372546  
H216     H      0.305320000000     0.618490000000     0.134340000000     0.15374    
H217     H      0.254900000000     0.538060000000     0.777660000000     0.0460677  
H218     H      0.210870000000     0.493340000000     0.638050000000     0.0357409  
H219     H      0.118350000000     0.478810000000     0.723470000000     0.0570636  
H220     H      0.359110000000     0.431140000000     0.813520000000     0.0367325  
H221     H      0.156790000000     0.528050000000     0.607200000000     0.0445271  
H222     H      0.243910000000     0.472320000000     0.851820000000     0.04476    
H223     H      0.330340000000     0.468750000000     0.759160000000     0.0360078  
H224     H      0.298570000000     0.482520000000     0.902520000000     0.0554852  
H225     H      0.068880000000     0.469410000000     0.667050000000     0.0743804  
H226     H      0.203680000000     0.548140000000     0.725900000000     0.0495042  
H227     H      0.160830000000     0.480730000000     0.582580000000     0.0422586  
H228     H      0.245800000000     0.409980000000     0.761820000000     0.0484239  
H229     H      0.183450000000     0.446960000000     0.641500000000     0.0431476  
H230     H      0.385150000000     0.478010000000     0.809210000000     0.0417886  
H231     H      0.275090000000     0.515500000000     0.842560000000     0.0554002  
H232     H      0.325030000000     0.513370000000     0.789230000000     0.0428292  
H233     H      0.195170000000     0.420060000000     0.709640000000     0.0478438  
H234     H      0.129720000000     0.439970000000     0.688480000000     0.0556519  
H235     H      0.298760000000     0.434210000000     0.878940000000     0.0376423  
H236     H      0.132720000000     0.574870000000     0.665300000000     0.153609   
H237     H      0.695240000000     0.414000000000     0.759750000000     0.0434407  
H238     H      0.747150000000     0.465680000000     0.621430000000     0.0385683  
H239     H      0.833510000000     0.466400000000     0.714330000000     0.0496635  
H240     H      0.588910000000     0.515320000000     0.799430000000     0.037365   
H241     H      0.803360000000     0.428840000000     0.595170000000     0.0502269  
H242     H      0.710160000000     0.484380000000     0.832970000000     0.0368062  
H243     H      0.618220000000     0.477260000000     0.746060000000     0.0362833  
H244     H      0.659560000000     0.474030000000     0.887400000000     0.0400762  
H245     H      0.887700000000     0.478950000000     0.663190000000     0.0593337  
H246     H      0.747880000000     0.404660000000     0.709350000000     0.0584489  
H247     H      0.800920000000     0.476540000000     0.570560000000     0.0418195  
H248     H      0.705180000000     0.542310000000     0.746450000000     0.0469999  
H249     H      0.776930000000     0.509980000000     0.630080000000     0.0418906  
H250     H      0.567450000000     0.466060000000     0.800890000000     0.0398225  
H251     H      0.681070000000     0.439080000000     0.828020000000     0.0388827  
H252     H      0.628430000000     0.434900000000     0.777980000000     0.038598   
H253     H      0.757990000000     0.532970000000     0.696250000000     0.0462288  
H254     H      0.826800000000     0.510070000000     0.683660000000     0.0416217  
H255     H      0.655380000000     0.520980000000     0.861580000000     0.0374713  
H256     H      0.896250000000     0.375230000000     0.711340000000     0.15412    
H257     H      0.701020000000     0.699110000000     0.034260000000     0.0462881  
H258     H      0.841700000000     0.750320000000     0.985310000000     0.0383492  
H259     H      0.751600000000     0.839390000000     0.994950000000     0.0478247  
H260     H      0.661540000000     0.600820000000     0.925600000000     0.03612    
H261     H      0.870510000000     0.801670000000     0.027100000000     0.0518901  
H262     H      0.627240000000     0.717670000000     0.964380000000     0.0436154  
H263     H      0.716230000000     0.627020000000     0.964920000000     0.036548   
H264     H      0.573690000000     0.665690000000     0.971340000000     0.0538162  
H265     H      0.804190000000     0.893120000000     0.988370000000     0.0518923  
H266     H      0.753090000000     0.749330000000     0.047650000000     0.0590583  
H267     H      0.894250000000     0.803740000000     0.979070000000     0.0430415  
H268     H      0.715250000000     0.718330000000     0.907540000000     0.0474642  
H269     H      0.833490000000     0.784820000000     0.944580000000     0.0427299  
H270     H      0.663530000000     0.574260000000     0.972200000000     0.0414707  
H271     H      0.633110000000     0.686380000000     0.007990000000     0.0571425  
H272     H      0.684840000000     0.633630000000     0.008300000000     0.0445555  
H273     H      0.766940000000     0.769010000000     0.920980000000     0.0460983  
H274     H      0.781680000000     0.836390000000     0.950560000000     0.0405093  
H275     H      0.600690000000     0.662960000000     0.925060000000     0.0370359  
H276     H      0.797410000000     0.826910000000     0.104280000000     0.154486   
H277     H      0.701530000000     0.266060000000     0.038160000000     0.0427006  
H278     H      0.749470000000     0.125740000000     0.986720000000     0.0360515  
H279     H      0.837340000000     0.217350000000     0.983790000000     0.0474457  
H280     H      0.594170000000     0.305580000000     0.938740000000     0.039545   
H281     H      0.803530000000     0.098180000000     0.024920000000     0.0441484  
H282     H      0.714300000000     0.339770000000     0.967840000000     0.0372057  
H283     H      0.623900000000     0.250870000000     0.975170000000     0.0355066  
H284     H      0.663210000000     0.393420000000     0.980460000000     0.038685   
H285     H      0.890990000000     0.164630000000     0.975530000000     0.0526255  
H286     H      0.753020000000     0.214420000000     0.047110000000     0.0593281  
H287     H      0.803260000000     0.073590000000     0.977350000000     0.0407413  
H288     H      0.709260000000     0.251510000000     0.910230000000     0.0461731  
H289     H      0.780160000000     0.132670000000     0.942920000000     0.0361815  
H290     H      0.572430000000     0.304040000000     0.987750000000     0.038549   
H291     H      0.686720000000     0.333480000000     0.013780000000     0.0395896  
H292     H      0.634310000000     0.282050000000     0.018010000000     0.0387189  
H293     H      0.761150000000     0.199950000000     0.919270000000     0.0427916  
H294     H      0.830900000000     0.184340000000     0.941870000000     0.0355161  
H295     H      0.657380000000     0.367800000000     0.933640000000     0.0400272  
H296     H      0.819150000000     0.151110000000     0.076930000000     0.152518   
H297     H      0.196320000000     0.765190000000     0.927490000000     0.043853   
H298     H      0.339090000000     0.717170000000     0.967900000000     0.0389121  
H299     H      0.249610000000     0.627200000000     0.975170000000     0.0527423  
H300     H      0.166240000000     0.870580000000     0.032250000000     0.065743   
H301     H      0.364290000000     0.661510000000     0.929240000000     0.051522   
H302     H      0.127690000000     0.752500000000     0.002710000000     0.0409337  
H303     H      0.217340000000     0.841630000000     0.990580000000     0.0425749  
H304     H      0.074370000000     0.804830000000     0.995750000000     0.0395875  
H305     H      0.303260000000     0.574870000000     0.983700000000     0.0625066  
H306     H      0.246850000000     0.713390000000     0.914140000000     0.0579102  
H307     H      0.392660000000     0.665300000000     0.974560000000     0.0416842  
H308     H      0.219630000000     0.755220000000     0.053940000000     0.0506564  
H309     H      0.334890000000     0.687080000000     0.012560000000     0.0432506  
H310     H      0.164760000000     0.894620000000     0.984150000000     0.0546817  
H311     H      0.130950000000     0.781120000000     0.957040000000     0.0411769  
H312     H      0.182680000000     0.832960000000     0.950110000000     0.0399431  
H313     H      0.269950000000     0.703220000000     0.040600000000     0.0468302  
H314     H      0.283060000000     0.635010000000     0.016470000000     0.0534875  
H315     H      0.103870000000     0.809370000000     0.040310000000     0.0422662  
H316     H      0.286320000000     0.626580000000     0.861710000000     0.153346   
H317     H      0.269520000000     0.269840000000     0.934040000000     0.0428558  
H318     H      0.216090000000     0.129590000000     0.976420000000     0.0386477  
H319     H      0.126480000000     0.219540000000     0.971260000000     0.0486228  
H320     H      0.364360000000     0.307670000000     0.046800000000     0.0381287  
H321     H      0.163840000000     0.102540000000     0.934410000000     0.0539816  
H322     H      0.250080000000     0.343190000000     0.003430000000     0.0401021  
H323     H      0.339300000000     0.252820000000     0.006630000000     0.037468   
H324     H      0.302750000000     0.396180000000     0.998370000000     0.0403612  
H325     H      0.073430000000     0.166100000000     0.978550000000     0.0531227  
H326     H      0.218700000000     0.218920000000     0.918450000000     0.0577304  
H327     H      0.163810000000     0.076300000000     0.981170000000     0.043294   
H328     H      0.246800000000     0.253790000000     0.059950000000     0.0449098  
H329     H      0.182420000000     0.136100000000     0.018080000000     0.0379327  
H330     H      0.392920000000     0.304960000000     0.001450000000     0.0392457  
H331     H      0.282820000000     0.336870000000     0.961010000000     0.0400855  
H332     H      0.334870000000     0.284120000000     0.962870000000     0.0385219  
H333     H      0.195930000000     0.202950000000     0.044360000000     0.0416211  
H334     H      0.130590000000     0.188450000000     0.014870000000     0.0368604  
H335     H      0.303620000000     0.369060000000     0.044700000000     0.0390705  
H336     H      0.070680000000     0.214740000000     0.875370000000     0.154409   
H337     H      0.750850000000     0.971780000000     0.666230000000     0.0442146  
H338     H      0.779390000000     0.048800000000     0.822290000000     0.0357315  
H339     H      0.812660000000     0.934590000000     0.776200000000     0.050883   
H340     H      0.643400000000     0.042320000000     0.609820000000     0.0432845  
H341     H      0.847910000000     0.045850000000     0.839480000000     0.0443017  
H342     H      0.633240000000     0.963630000000     0.712780000000     0.0410763  
H343     H      0.709170000000     0.022600000000     0.629500000000     0.0403828  
H344     H      0.582900000000     0.951940000000     0.659140000000     0.0582175  
H345     H      0.857440000000     0.925640000000     0.835580000000     0.0657333  
H346     H      0.802670000000     0.973810000000     0.716160000000     0.0576911  
H347     H      0.821570000000     0.034160000000     0.884370000000     0.0376801  
H348     H      0.666030000000     0.018300000000     0.752100000000     0.0472364  
H349     H      0.767480000000     0.003130000000     0.848900000000     0.0384254  
H350     H      0.660550000000     0.006050000000     0.574330000000     0.044252   
H351     H      0.653870000000     0.936740000000     0.670920000000     0.0491638  
H352     H      0.697810000000     0.969810000000     0.623840000000     0.0411283  
H353     H      0.716920000000     0.015560000000     0.803680000000     0.0424215  
H354     H      0.788760000000     0.939590000000     0.823570000000     0.0415909  
H355     H      0.590340000000     0.004040000000     0.670610000000     0.0450201  
H356     H      0.872300000000     0.992790000000     0.732260000000     0.153076   
H357     H      0.265060000000     0.918140000000     0.704170000000     0.0427018  
H358     H      0.216030000000     0.972290000000     0.842040000000     0.0378736  
H359     H      0.126820000000     0.969630000000     0.751920000000     0.0492486  
H360     H      0.371870000000     0.018930000000     0.665590000000     0.0424678  
H361     H      0.161820000000     0.934800000000     0.871040000000     0.0392648  
H362     H      0.251560000000     0.988040000000     0.629660000000     0.0365731  
H363     H      0.341400000000     0.981520000000     0.718800000000     0.035915   
H364     H      0.303460000000     0.976840000000     0.576510000000     0.0404228  
H365     H      0.074050000000     0.981800000000     0.804680000000     0.058071   
H366     H      0.213090000000     0.909180000000     0.755290000000     0.0569618  
H367     H      0.163550000000     0.983130000000     0.894340000000     0.0437624  
H368     H      0.254520000000     0.046570000000     0.715850000000     0.0476471  
H369     H      0.184970000000     0.015740000000     0.833570000000     0.0434932  
H370     H      0.393390000000     0.969670000000     0.665540000000     0.0414483  
H371     H      0.280230000000     0.942620000000     0.635800000000     0.038624   
H372     H      0.331840000000     0.938820000000     0.687110000000     0.0379764  
H373     H      0.202140000000     0.037580000000     0.766610000000     0.0454935  
H374     H      0.133550000000     0.013850000000     0.781800000000     0.0415973  
H375     H      0.307340000000     0.024010000000     0.602010000000     0.0410847  
H376     H      0.147430000000     0.882180000000     0.818930000000     0.15004    
H377     H      0.271280000000     0.950000000000     0.263080000000     0.0455197  
H378     H      0.130980000000     0.989850000000     0.217320000000     0.0421789  
H379     H      0.217840000000     0.014410000000     0.128440000000     0.0473063  
H380     H      0.304080000000     0.048380000000     0.374810000000     0.042654   
H381     H      0.107050000000     0.952400000000     0.162240000000     0.0706897  
H382     H      0.340870000000     0.023740000000     0.255470000000     0.0374372  
H383     H      0.250390000000     0.011240000000     0.343480000000     0.0372111  
H384     H      0.393610000000     0.011730000000     0.306970000000     0.0419906  
H385     H      0.161950000000     0.018580000000     0.076950000000     0.0521956  
H386     H      0.221780000000     0.940200000000     0.209800000000     0.0580449  
H387     H      0.076340000000     0.996210000000     0.165320000000     0.05264    
H388     H      0.248300000000     0.077330000000     0.261100000000     0.0463116  
H389     H      0.130870000000     0.036500000000     0.190150000000     0.0363871  
H390     H      0.302480000000     0.998870000000     0.395910000000     0.0394176  
H391     H      0.335530000000     0.976530000000     0.281300000000     0.0393898  
H392     H      0.282600000000     0.969210000000     0.332630000000     0.0392749  
H393     H      0.198320000000     0.067340000000     0.207960000000     0.0423775  
H394     H      0.178480000000     0.049050000000     0.139130000000     0.0332771  
H395     H      0.365620000000     0.056950000000     0.314740000000     0.0435462  
H396     H      0.152590000000     0.903820000000     0.123180000000     0.160308   
H397     H      0.769590000000     0.056340000000     0.208060000000     0.0472582  
H398     H      0.626770000000     0.007560000000     0.252240000000     0.0399844  
H399     H      0.716250000000     0.002090000000     0.341990000000     0.0498926  
H400     H      0.803400000000     0.954700000000     0.100000000000     0.0639686  
H401     H      0.598900000000     0.043490000000     0.308180000000     0.0437812  
H402     H      0.841320000000     0.985120000000     0.219730000000     0.0430018  
H403     H      0.752350000000     0.994770000000     0.130060000000     0.0391865  
H404     H      0.894890000000     0.995090000000     0.167300000000     0.054964   
H405     H      0.663030000000     0.990810000000     0.393890000000     0.0517826  
H406     H      0.717140000000     0.065920000000     0.258690000000     0.0610091  
H407     H      0.573460000000     0.996340000000     0.303950000000     0.0376055  
H408     H      0.751450000000     0.928370000000     0.213430000000     0.0494871  
H409     H      0.633110000000     0.962280000000     0.281060000000     0.0385373  
H410     H      0.805930000000     0.003630000000     0.077990000000     0.0508009  
H411     H      0.836590000000     0.030570000000     0.190890000000     0.0548602  
H412     H      0.786100000000     0.035930000000     0.139450000000     0.0415926  
H413     H      0.699220000000     0.937910000000     0.264200000000     0.043967   
H414     H      0.684400000000     0.959610000000     0.333240000000     0.0375592  
H415     H      0.868780000000     0.948260000000     0.164800000000     0.0444136  
H416     H      0.606450000000     0.085410000000     0.386850000000     0.145391   
H417     H      0.043240000000     0.193770000000     0.759530000000     0.0458955  
H418     H      0.992870000000     0.247590000000     0.622050000000     0.0387167  
H419     H      0.995490000000     0.334780000000     0.714310000000     0.0448174  
H420     H      0.937330000000     0.093700000000     0.803420000000     0.0498623  
H421     H      0.032090000000     0.302030000000     0.595400000000     0.0549935  
H422     H      0.976620000000     0.212390000000     0.834810000000     0.0403152  
H423     H      0.974510000000     0.120090000000     0.747710000000     0.0411353  
H424     H      0.986030000000     0.161370000000     0.888850000000     0.0539636  
H425     H      0.986050000000     0.389270000000     0.662840000000     0.063389   
H426     H      0.054090000000     0.245530000000     0.708470000000     0.0513879  
H427     H      0.984470000000     0.301680000000     0.570740000000     0.0430107  
H428     H      0.915660000000     0.210430000000     0.749220000000     0.0481795  
H429     H      0.949990000000     0.279370000000     0.630440000000     0.0422192  
H430     H      0.984710000000     0.068460000000     0.801620000000     0.0549153  
H431     H      0.019910000000     0.180810000000     0.827930000000     0.0482901  
H432     H      0.018820000000     0.127750000000     0.777530000000     0.0458503  
H433     H      0.926550000000     0.262360000000     0.698200000000     0.0455384  
H434     H      0.951920000000     0.329760000000     0.683310000000     0.0438333  
H435     H      0.938320000000     0.158860000000     0.864390000000     0.0387204  
H436     H      0.079790000000     0.318240000000     0.694810000000     0.152078   
H437     H      0.936250000000     0.681810000000     0.725380000000     0.046197   
H438     H      0.995850000000     0.744930000000     0.851350000000     0.0367374  
H439     H      0.981210000000     0.830310000000     0.758590000000     0.0471799  
H440     H      0.048470000000     0.618830000000     0.643300000000     0.0699321  
H441     H      0.954680000000     0.795600000000     0.881220000000     0.0514827  
H442     H      0.970510000000     0.711700000000     0.639160000000     0.0400896  
H443     H      0.027150000000     0.624730000000     0.712680000000     0.0455443  
H444     H      0.958420000000     0.659320000000     0.586390000000     0.0566193  
H445     H      0.989690000000     0.885850000000     0.809260000000     0.075104   
H446     H      0.928860000000     0.731730000000     0.778900000000     0.0572015  
H447     H      0.004110000000     0.801170000000     0.901260000000     0.0432815  
H448     H      0.058510000000     0.719240000000     0.707710000000     0.0497639  
H449     H      0.035310000000     0.779830000000     0.839440000000     0.0424501  
H450     H      0.025180000000     0.573230000000     0.658620000000     0.183585   
H451     H      0.941810000000     0.669170000000     0.656360000000     0.0444186  
H452     H      0.975390000000     0.617440000000     0.698650000000     0.0448267  
H453     H      0.051770000000     0.767660000000     0.762660000000     0.0491153  
H454     H      0.026310000000     0.828970000000     0.787670000000     0.0556223  
H455     H      0.010410000000     0.670160000000     0.595090000000     0.0438208  
H456     H      0.904420000000     0.820260000000     0.764700000000     0.152049   
H457     H      0.036240000000     0.707260000000     0.272810000000     0.0434281  
H458     H      0.984600000000     0.755350000000     0.134880000000     0.0375458  
H459     H      0.988020000000     0.846740000000     0.222970000000     0.0463851  
H460     H      0.932150000000     0.603850000000     0.311070000000     0.0364311  
H461     H      0.024740000000     0.807360000000     0.105570000000     0.0440618  
H462     H      0.968000000000     0.721300000000     0.347860000000     0.0374955  
H463     H      0.968850000000     0.633220000000     0.256420000000     0.0360738  
H464     H      0.978990000000     0.668010000000     0.399470000000     0.0407089  
H465     H      0.979570000000     0.898810000000     0.168710000000     0.054443   
H466     H      0.046780000000     0.758540000000     0.221330000000     0.060853   
H467     H      0.976990000000     0.807160000000     0.081140000000     0.0413614  
H468     H      0.908460000000     0.721420000000     0.260780000000     0.045922   
H469     H      0.942270000000     0.788280000000     0.141580000000     0.0399991  
H470     H      0.979850000000     0.579420000000     0.307370000000     0.0394816  
H471     H      0.012440000000     0.691640000000     0.339770000000     0.0411144  
H472     H      0.012930000000     0.640470000000     0.286740000000     0.0404607  
H473     H      0.919100000000     0.773110000000     0.209430000000     0.0441958  
H474     H      0.944610000000     0.840780000000     0.191860000000     0.03775    
H475     H      0.931530000000     0.664940000000     0.374510000000     0.0374363  
H476     H      0.074620000000     0.869740000000     0.113020000000     0.158587   
H477     H      0.935280000000     0.275130000000     0.259270000000     0.0496967  
H478     H      0.994210000000     0.222070000000     0.123120000000     0.0409586  
H479     H      0.980240000000     0.135400000000     0.214690000000     0.0497045  
H480     H      0.039690000000     0.374400000000     0.306250000000     0.0350161  
H481     H      0.952430000000     0.172510000000     0.093380000000     0.0786349  
H482     H      0.000440000000     0.255840000000     0.336700000000     0.0467015  
H483     H      0.004190000000     0.347960000000     0.249390000000     0.0387296  
H484     H      0.989340000000     0.306870000000     0.390360000000     0.0541814  
H485     H      0.987020000000     0.080350000000     0.163140000000     0.0511054  
H486     H      0.925630000000     0.224250000000     0.207140000000     0.06315    
H487     H      0.001220000000     0.166840000000     0.072050000000     0.048154   
H488     H      0.062970000000     0.256930000000     0.253310000000     0.0460311  
H489     H      0.033500000000     0.186530000000     0.133690000000     0.0343487  
H490     H      0.992410000000     0.399630000000     0.302620000000     0.0393306  
H491     H      0.956990000000     0.286950000000     0.328650000000     0.0588978  
H492     H      0.959100000000     0.340200000000     0.278040000000     0.0445034  
H493     H      0.053180000000     0.205560000000     0.201450000000     0.041639   
H494     H      0.024940000000     0.137000000000     0.185090000000     0.0368174  
H495     H      0.037510000000     0.310020000000     0.366840000000     0.0361992  
H496     H      0.870000000000     0.145380000000     0.154970000000     0.160917   
N1       N      0.474560000000     0.128080000000     0.365810000000    -0.16042    
N2       N      0.469310000000     0.191900000000     0.310230000000    -0.105428   
N3       N      0.499010000000     0.309530000000     0.189960000000    -0.113144   
N4       N      0.493400000000     0.364750000000     0.125930000000    -0.166049   
N5       N      0.493080000000     0.627400000000     0.104400000000    -0.156353   
N6       N      0.497670000000     0.691500000000     0.159440000000    -0.104523   
N7       N      0.472450000000     0.811510000000     0.278160000000    -0.111289   
N8       N      0.477840000000     0.866330000000     0.342370000000    -0.162111   
N9       N      0.487710000000     0.842500000000     0.603700000000    -0.159933   
N10      N      0.491770000000     0.778080000000     0.658800000000    -0.105512   
N11      N      0.462330000000     0.661290000000     0.780170000000    -0.112563   
N12      N      0.469170000000     0.605800000000     0.843990000000    -0.16466    
N13      N      0.494290000000     0.103930000000     0.627540000000    -0.159004   
N14      N      0.497470000000     0.158710000000     0.692100000000    -0.106665   
N15      N      0.467310000000     0.279370000000     0.809380000000    -0.112737   
N16      N      0.473220000000     0.343440000000     0.864670000000    -0.165978   
N17      N      0.858530000000     0.348570000000     0.468440000000    -0.161863   
N18      N      0.800530000000     0.286930000000     0.463600000000    -0.107445   
N19      N      0.680590000000     0.170500000000     0.498490000000    -0.110439   
N20      N      0.618660000000     0.113030000000     0.496300000000    -0.157189   
N21      N      0.846380000000     0.610180000000     0.495260000000    -0.160869   
N22      N      0.784590000000     0.668340000000     0.498640000000    -0.106772   
N23      N      0.669450000000     0.790200000000     0.464350000000    -0.112708   
N24      N      0.611240000000     0.851820000000     0.468420000000    -0.164785   
N25      N      0.356770000000     0.119990000000     0.504970000000    -0.158995   
N26      N      0.298750000000     0.181360000000     0.510720000000    -0.107349   
N27      N      0.181830000000     0.301580000000     0.478800000000    -0.112799   
N28      N      0.120070000000     0.359150000000     0.482280000000    -0.165481   
N29      N      0.347590000000     0.859360000000     0.473630000000    -0.161456   
N30      N      0.285180000000     0.802220000000     0.470570000000    -0.109574   
N31      N      0.166060000000     0.683630000000     0.501340000000    -0.112689   
N32      N      0.108510000000     0.621720000000     0.495370000000    -0.165268   
N33      N      0.620780000000     0.496910000000     0.109220000000    -0.161296   
N34      N      0.682980000000     0.499260000000     0.166700000000    -0.107895   
N35      N      0.798690000000     0.468040000000     0.288520000000    -0.112539   
N36      N      0.856180000000     0.474080000000     0.350550000000    -0.16504    
N37      N      0.357730000000     0.503700000000     0.120200000000    -0.160135   
N38      N      0.299660000000     0.511830000000     0.181320000000    -0.105579   
N39      N      0.179380000000     0.486160000000     0.299750000000    -0.113005   
N40      N      0.118040000000     0.491280000000     0.357630000000    -0.165974   
N41      N      0.109600000000     0.487850000000     0.620950000000    -0.155316   
N42      N      0.166150000000     0.492340000000     0.683330000000    -0.112378   
N43      N      0.284510000000     0.465710000000     0.803220000000    -0.112626   
N44      N      0.346280000000     0.471780000000     0.860400000000    -0.162875   
N45      N      0.849390000000     0.468880000000     0.612590000000    -0.159794   
N46      N      0.787920000000     0.461080000000     0.670070000000    -0.106799   
N47      N      0.666250000000     0.485970000000     0.786900000000    -0.112904   
N48      N      0.608680000000     0.480230000000     0.848290000000    -0.166457   
N49      N      0.853840000000     0.852330000000     0.992680000000    -0.159955   
N50      N      0.794390000000     0.791970000000     0.994760000000    -0.104972   
N51      N      0.674510000000     0.675050000000     0.960460000000    -0.112124   
N52      N      0.614260000000     0.615640000000     0.964980000000    -0.163087   
N53      N      0.851780000000     0.115050000000     0.987440000000    -0.161563   
N54      N      0.791250000000     0.173690000000     0.990800000000    -0.108658   
N55      N      0.671300000000     0.292670000000     0.966800000000    -0.112424   
N56      N      0.612890000000     0.353160000000     0.976220000000    -0.167055   
N57      N      0.351810000000     0.615200000000     0.970730000000    -0.158221   
N58      N      0.291690000000     0.674550000000     0.966980000000    -0.10449    
N59      N      0.175430000000     0.794730000000     0.001060000000    -0.109135   
N60      N      0.115850000000     0.854560000000     0.997550000000    -0.164773   
N61      N      0.114340000000     0.116870000000     0.971300000000    -0.160392   
N62      N      0.174180000000     0.177150000000     0.969550000000    -0.106512   
N63      N      0.291720000000     0.295190000000     0.008890000000    -0.110452   
N64      N      0.352000000000     0.354910000000     0.006410000000    -0.166998   
N65      N      0.852270000000     0.985060000000     0.856430000000    -0.160273   
N66      N      0.797550000000     0.995010000000     0.792900000000    -0.111071   
N67      N      0.672140000000     0.998090000000     0.675330000000    -0.110945   
N68      N      0.614370000000     0.986230000000     0.614830000000    -0.164808   
N69      N      0.114060000000     0.972940000000     0.854090000000    -0.160896   
N70      N      0.173800000000     0.965850000000     0.794870000000    -0.108471   
N71      N      0.294340000000     0.989870000000     0.676760000000    -0.112919   
N72      N      0.353340000000     0.982990000000     0.616850000000    -0.165505   
N73      N      0.117260000000     0.993640000000     0.115400000000    -0.156445   
N74      N      0.177360000000     0.995430000000     0.174100000000    -0.112492   
N75      N      0.292710000000     0.021670000000     0.297090000000    -0.112973   
N76      N      0.352130000000     0.011320000000     0.356580000000    -0.164713   
N77      N      0.613910000000     0.002210000000     0.353900000000    -0.162816   
N78      N      0.673950000000     0.009760000000     0.294910000000    -0.105436   
N79      N      0.794270000000     0.984470000000     0.176850000000    -0.111574   
N80      N      0.854160000000     0.988130000000     0.117840000000    -0.157736   
N81      N      0.994340000000     0.350110000000     0.612460000000    -0.157126   
N82      N      0.999130000000     0.288590000000     0.670380000000    -0.108808   
N83      N      0.970760000000     0.168730000000     0.788720000000    -0.112225   
N84      N      0.976800000000     0.110590000000     0.849890000000    -0.161262   
N85      N      0.985120000000     0.847150000000     0.860210000000    -0.15487    
N86      N      0.982690000000     0.784820000000     0.803520000000    -0.107721   
N87      N      0.002220000000     0.671850000000     0.677650000000    -0.11426    
N88      N      0.991760000000     0.613690000000     0.617420000000    -0.152601   
N89      N      0.988380000000     0.857190000000     0.120550000000    -0.162313   
N90      N      0.991570000000     0.798710000000     0.181040000000    -0.107739   
N91      N      0.963880000000     0.679750000000     0.299710000000    -0.112638   
N92      N      0.972000000000     0.619090000000     0.357810000000    -0.167656   
N93      N      0.982590000000     0.120190000000     0.112680000000    -0.156732   
N94      N      0.981300000000     0.181380000000     0.170400000000    -0.105374   
N95      N      0.007020000000     0.299430000000     0.290640000000    -0.110987   
N96      N      0.998550000000     0.357570000000     0.351290000000    -0.165919   
O1       O      0.984650000000     0.100520000000     0.047060000000    -0.367464   
O2       O      0.985200000000     0.873110000000     0.054310000000    -0.377471   
O3       O      0.920250000000     0.987710000000     0.099850000000    -0.365549   
O4       O      0.050950000000     0.989120000000     0.098380000000    -0.365402   
O5       O      0.098700000000     0.991310000000     0.049540000000    -0.365194   
O6       O      0.871620000000     0.987470000000     0.051840000000    -0.367535   
O7       O      0.986350000000     0.922980000000     0.101070000000    -0.366812   
O8       O      0.983510000000     0.053570000000     0.096810000000    -0.368766   
O9       O      0.025470000000     0.945800000000     0.027220000000    -0.50217    
O10      O      0.944030000000     0.026360000000     0.025200000000    -0.49881    
O11      O      0.944240000000     0.945290000000     0.028100000000    -0.65614    
O12      O      0.024940000000     0.027220000000     0.024510000000    -0.652301   
O13      O      0.986380000000     0.867720000000     0.925440000000    -0.376553   
O14      O      0.981150000000     0.095180000000     0.916300000000    -0.369199   
O15      O      0.871110000000     0.918690000000     0.988540000000    -0.370271   
O16      O      0.098030000000     0.920460000000     0.990700000000    -0.364451   
O17      O      0.097170000000     0.050750000000     0.978430000000    -0.372873   
O18      O      0.870290000000     0.049110000000     0.986840000000    -0.372415   
O19      O      0.917160000000     0.975270000000     0.874460000000    -0.352993   
O20      O      0.048190000000     0.978810000000     0.871880000000    -0.364606   
O21      O      0.869750000000     0.988280000000     0.922040000000    -0.37779    
O22      O      0.096870000000     0.980220000000     0.919830000000    -0.374246   
O23      O      0.919740000000     0.870540000000     0.989390000000    -0.373886   
O24      O      0.918120000000     0.097920000000     0.983890000000    -0.366917   
O25      O      0.048520000000     0.098830000000     0.977640000000    -0.369205   
O26      O      0.049900000000     0.871890000000     0.992980000000    -0.37432    
O27      O      0.983900000000     0.914130000000     0.875300000000    -0.355441   
O28      O      0.980980000000     0.044960000000     0.869750000000    -0.367123   
O29      O      0.023830000000     0.023720000000     0.943290000000    -0.50244    
O30      O      0.942970000000     0.941850000000     0.947030000000    -0.506138   
O31      O      0.943340000000     0.023280000000     0.944260000000    -0.655526   
O32      O      0.024780000000     0.942670000000     0.946640000000    -0.657388   
O33      O      0.991640000000     0.373360000000     0.417350000000    -0.370791   
O34      O      0.977170000000     0.600070000000     0.423200000000    -0.381379   
O35      O      0.921390000000     0.480600000000     0.370330000000    -0.37301    
O36      O      0.051430000000     0.491170000000     0.373640000000    -0.375771   
O37      O      0.098520000000     0.491230000000     0.423180000000    -0.377834   
O38      O      0.871550000000     0.479710000000     0.417070000000    -0.373901   
O39      O      0.980230000000     0.552990000000     0.373700000000    -0.381985   
O40      O      0.991230000000     0.423010000000     0.370320000000    -0.375928   
O41      O      0.023370000000     0.528540000000     0.446700000000    -0.505591   
O42      O      0.945890000000     0.443980000000     0.442890000000    -0.504851   
O43      O      0.941650000000     0.524830000000     0.444590000000    -0.654639   
O44      O      0.026630000000     0.447360000000     0.444910000000    -0.654583   
O45      O      0.980070000000     0.597010000000     0.552630000000    -0.368783   
O46      O      0.989110000000     0.369370000000     0.547040000000    -0.376572   
O47      O      0.866590000000     0.545010000000     0.486950000000    -0.376627   
O48      O      0.093690000000     0.554990000000     0.490500000000    -0.377943   
O49      O      0.099750000000     0.424520000000     0.486540000000    -0.376504   
O50      O      0.873190000000     0.414990000000     0.476770000000    -0.374282   
O51      O      0.915410000000     0.478160000000     0.596970000000    -0.368214   
O52      O      0.044750000000     0.483320000000     0.600450000000    -0.356056   
O53      O      0.868570000000     0.475380000000     0.547310000000    -0.376145   
O54      O      0.094620000000     0.488060000000     0.554000000000    -0.372851   
O55      O      0.913040000000     0.595050000000     0.491360000000    -0.369234   
O56      O      0.923470000000     0.368630000000     0.476950000000    -0.369964   
O57      O      0.053400000000     0.374300000000     0.483170000000    -0.374383   
O58      O      0.043310000000     0.601310000000     0.489820000000    -0.373438   
O59      O      0.985430000000     0.547660000000     0.599760000000    -0.355541   
O60      O      0.987180000000     0.416510000000     0.596510000000    -0.358436   
O61      O      0.024580000000     0.444970000000     0.525700000000    -0.503072   
O62      O      0.939710000000     0.522780000000     0.526020000000    -0.504715   
O63      O      0.943410000000     0.441090000000     0.523700000000    -0.65611    
O64      O      0.020770000000     0.525580000000     0.527230000000    -0.658842   
O65      O      0.596250000000     0.991370000000     0.418990000000    -0.371827   
O66      O      0.369730000000     0.998850000000     0.421570000000    -0.374982   
O67      O      0.480930000000     0.930830000000     0.365790000000    -0.376989   
O68      O      0.480340000000     0.060870000000     0.377930000000    -0.373495   
O69      O      0.481720000000     0.105110000000     0.430030000000    -0.367165   
O70      O      0.479740000000     0.878340000000     0.409710000000    -0.368529   
O71      O      0.417740000000     0.001360000000     0.373050000000    -0.372743   
O72      O      0.547810000000     0.996800000000     0.371160000000    -0.379855   
O73      O      0.444160000000     0.030840000000     0.448750000000    -0.503764   
O74      O      0.522440000000     0.947780000000     0.440480000000    -0.509331   
O75      O      0.441330000000     0.950020000000     0.441160000000    -0.652748   
O76      O      0.524850000000     0.029220000000     0.447330000000    -0.653521   
O77      O      0.370620000000     0.984100000000     0.550790000000    -0.377416   
O78      O      0.596520000000     0.985040000000     0.548990000000    -0.372556   
O79      O      0.414470000000     0.874540000000     0.475970000000    -0.36835    
O80      O      0.422040000000     0.100740000000     0.498530000000    -0.364212   
O81      O      0.551980000000     0.097620000000     0.493650000000    -0.371127   
O82      O      0.545620000000     0.871120000000     0.472290000000    -0.37256    
O83      O      0.484840000000     0.909960000000     0.591590000000    -0.372198   
O84      O      0.487280000000     0.039880000000     0.603930000000    -0.373095   
O85      O      0.482120000000     0.865810000000     0.539440000000    -0.374264   
O86      O      0.490670000000     0.092390000000     0.560170000000    -0.360268   
O87      O      0.367870000000     0.924480000000     0.480390000000    -0.378851   
O88      O      0.595260000000     0.918010000000     0.477330000000    -0.377367   
O89      O      0.598690000000     0.047770000000     0.490080000000    -0.364427   
O90      O      0.372270000000     0.054030000000     0.494080000000    -0.373401   
O91      O      0.419130000000     0.978360000000     0.598530000000    -0.378186   
O92      O      0.549060000000     0.976900000000     0.597500000000    -0.37017    
O93      O      0.524910000000     0.021110000000     0.528060000000    -0.507242   
O94      O      0.441720000000     0.942380000000     0.522120000000    -0.509009   
O95      O      0.523440000000     0.940420000000     0.521070000000    -0.653952   
O96      O      0.444770000000     0.023690000000     0.529230000000    -0.654573   
O97      O      0.417970000000     0.372040000000     0.999210000000    -0.378777   
O98      O      0.417990000000     0.598410000000     0.975620000000    -0.374896   
O99      O      0.373000000000     0.493730000000     0.054360000000    -0.370515   
O100     O      0.366780000000     0.478780000000     0.925310000000    -0.368812   
O101     O      0.412930000000     0.475650000000     0.875050000000    -0.375464   
O102     O      0.423110000000     0.496440000000     0.100730000000    -0.374766   
O103     O      0.370010000000     0.549900000000     0.980440000000    -0.363179   
O104     O      0.369840000000     0.420610000000     0.997640000000    -0.378653   
O105     O      0.441140000000     0.522250000000     0.943200000000    -0.504104   
O106     O      0.444530000000     0.448020000000     0.030490000000    -0.507601   
O107     O      0.444550000000     0.529320000000     0.023600000000    -0.65298    
O108     O      0.440830000000     0.441420000000     0.949490000000    -0.653808   
O109     O      0.548260000000     0.598470000000     0.971260000000    -0.369627   
O110     O      0.547680000000     0.371430000000     0.985590000000    -0.378134   
O111     O      0.489640000000     0.559890000000     0.092160000000    -0.365722   
O112     O      0.474510000000     0.541130000000     0.866530000000    -0.373409   
O113     O      0.477880000000     0.410740000000     0.877150000000    -0.37702    
O114     O      0.488840000000     0.429340000000     0.103170000000    -0.376489   
O115     O      0.600000000000     0.489790000000     0.044300000000    -0.374937   
O116     O      0.593400000000     0.481490000000     0.914790000000    -0.376873   
O117     O      0.553860000000     0.495100000000     0.094410000000    -0.36707    
O118     O      0.543270000000     0.477410000000     0.868540000000    -0.378423   
O119     O      0.487430000000     0.604270000000     0.040160000000    -0.366944   
O120     O      0.488170000000     0.377180000000     0.058840000000    -0.377394   
O121     O      0.478170000000     0.366260000000     0.929100000000    -0.374975   
O122     O      0.477460000000     0.593260000000     0.910730000000    -0.373208   
O123     O      0.596460000000     0.549990000000     0.973840000000    -0.37431    
O124     O      0.596020000000     0.419520000000     0.979930000000    -0.37791    
O125     O      0.521670000000     0.441360000000     0.945960000000    -0.506387   
O126     O      0.525520000000     0.528980000000     0.020020000000    -0.500253   
O127     O      0.525590000000     0.447750000000     0.026530000000    -0.649857   
O128     O      0.521770000000     0.522440000000     0.939120000000    -0.653263   
O129     O      0.391300000000     0.186280000000     0.348450000000    -0.276396   
O130     O      0.412370000000     0.217810000000     0.420520000000    -0.190193   
O131     O      0.397440000000     0.138440000000     0.413940000000    -0.176364   
O132     O      0.577610000000     0.676570000000     0.124530000000    -0.265498   
O133     O      0.559640000000     0.719510000000     0.057650000000    -0.190332   
O134     O      0.570230000000     0.639440000000     0.052490000000    -0.166355   
O135     O      0.572940000000     0.807480000000     0.646480000000    -0.276485   
O136     O      0.564360000000     0.873360000000     0.693820000000    -0.192809   
O137     O      0.570610000000     0.882090000000     0.613760000000    -0.189347   
O138     O      0.578890000000     0.112860000000     0.590220000000    -0.271037   
O139     O      0.578810000000     0.145540000000     0.664730000000    -0.18144    
O140     O      0.572990000000     0.193590000000     0.600280000000    -0.179769   
O141     O      0.839230000000     0.287150000000     0.385070000000    -0.270481   
O142     O      0.913290000000     0.260400000000     0.405070000000    -0.181932   
O143     O      0.902210000000     0.338860000000     0.389700000000    -0.178507   
O144     O      0.882340000000     0.699250000000     0.572010000000    -0.285029   
O145     O      0.885270000000     0.617910000000     0.578190000000    -0.175107   
O146     O      0.813850000000     0.655780000000     0.580070000000    -0.17939    
O147     O      0.333530000000     0.173460000000     0.591040000000    -0.272303   
O148     O      0.406260000000     0.206350000000     0.575590000000    -0.177918   
O149     O      0.400050000000     0.126480000000     0.585300000000    -0.189189   
O150     O      0.317940000000     0.798450000000     0.390450000000    -0.272082   
O151     O      0.394180000000     0.773430000000     0.402900000000    -0.183788   
O152     O      0.379320000000     0.852040000000     0.390800000000    -0.190382   
O153     O      0.654480000000     0.580880000000     0.162480000000    -0.271468   
O154     O      0.581360000000     0.571600000000     0.196600000000    -0.180939   
O155     O      0.587210000000     0.580440000000     0.116650000000    -0.165573   
O156     O      0.309660000000     0.590250000000     0.142470000000    -0.276071   
O157     O      0.264620000000     0.570840000000     0.077440000000    -0.189937   
O158     O      0.344460000000     0.580490000000     0.069600000000    -0.187748   
O159     O      0.107330000000     0.572360000000     0.650220000000    -0.289467   
O160     O      0.086000000000     0.547460000000     0.724680000000    -0.188201   
O161     O      0.030830000000     0.544400000000     0.665170000000    -0.269408   
O162     O      0.893730000000     0.404590000000     0.707560000000    -0.280478   
O163     O      0.900270000000     0.392780000000     0.627400000000    -0.185721   
O164     O      0.828540000000     0.383580000000     0.663420000000    -0.1827     
O165     O      0.801350000000     0.821710000000     0.075390000000    -0.275878   
O166     O      0.763500000000     0.893050000000     0.063680000000    -0.191061   
O167     O      0.843740000000     0.891250000000     0.074470000000    -0.189578   
O168     O      0.828710000000     0.177830000000     0.068190000000    -0.270884   
O169     O      0.900640000000     0.209120000000     0.046950000000    -0.179465   
O170     O      0.894800000000     0.130420000000     0.064930000000    -0.1637     
O171     O      0.292560000000     0.635240000000     0.889350000000    -0.27555    
O172     O      0.256470000000     0.565840000000     0.912620000000    -0.189669   
O173     O      0.335390000000     0.566140000000     0.895080000000    -0.176101   
O174     O      0.070860000000     0.210600000000     0.904690000000    -0.283281   
O175     O      0.070320000000     0.130070000000     0.891630000000    -0.173672   
O176     O      0.140210000000     0.170700000000     0.888960000000    -0.18118    
O177     O      0.875110000000     0.964360000000     0.740400000000    -0.272388   
O178     O      0.927450000000     0.931170000000     0.794030000000    -0.124715   
O179     O      0.911070000000     0.010850000000     0.796430000000    -0.183201   
O180     O      0.134550000000     0.888070000000     0.792920000000    -0.273551   
O181     O      0.060120000000     0.907870000000     0.767260000000    -0.178168   
O182     O      0.072580000000     0.893060000000     0.845400000000    -0.188285   
O183     O      0.146400000000     0.913630000000     0.095920000000    -0.265879   
O184     O      0.221890000000     0.939590000000     0.111280000000    -0.186878   
O185     O      0.189290000000     0.952500000000     0.038930000000    -0.181304   
O186     O      0.628120000000     0.078380000000     0.405800000000    -0.274959   
O187     O      0.668190000000     0.086660000000     0.335500000000    -0.182443   
O188     O      0.707980000000     0.064030000000     0.401800000000    -0.183089   
O189     O      0.078400000000     0.324510000000     0.665890000000    -0.27221    
O190     O      0.060280000000     0.393640000000     0.705480000000    -0.191327   
O191     O      0.073250000000     0.395080000000     0.625980000000    -0.167318   
O192     O      0.903240000000     0.818060000000     0.794210000000    -0.271418   
O193     O      0.912580000000     0.898110000000     0.778290000000    -0.137054   
O194     O      0.901570000000     0.871290000000     0.854970000000    -0.168756   
O195     O      0.069030000000     0.894180000000     0.128910000000    -0.264154   
O196     O      0.069580000000     0.835410000000     0.185240000000    -0.182384   
O197     O      0.053070000000     0.911490000000     0.206770000000    -0.183061   
O198     O      0.899090000000     0.151050000000     0.155340000000    -0.263699   
O199     O      0.911720000000     0.090690000000     0.208690000000    -0.187261   
O200     O      0.901800000000     0.073340000000     0.130580000000    -0.16521    
S1       S      0.416660000000     0.178080000000     0.391090000000     0.283565   
S2       S      0.552710000000     0.676160000000     0.080850000000     0.287206   
S3       S      0.552560000000     0.853460000000     0.650000000000     0.284351   
S4       S      0.559930000000     0.149540000000     0.619090000000     0.284495   
S5       S      0.881650000000     0.298340000000     0.409760000000     0.284246   
S6       S      0.859220000000     0.656090000000     0.560080000000     0.283992   
S7       S      0.377400000000     0.166840000000     0.567260000000     0.284442   
S8       S      0.362100000000     0.810300000000     0.411510000000     0.285106   
S9       S      0.608680000000     0.560750000000     0.156730000000     0.285384   
S10      S      0.308490000000     0.564100000000     0.099500000000     0.284119   
S11      S      0.080010000000     0.538970000000     0.676220000000     0.291706   
S12      S      0.870620000000     0.409880000000     0.663240000000     0.28473    
S13      S      0.805020000000     0.867480000000     0.054580000000     0.2837     
S14      S      0.871770000000     0.168870000000     0.043720000000     0.288199   
S15      S      0.298340000000     0.592320000000     0.915120000000     0.282976   
S16      S      0.096140000000     0.167540000000     0.911450000000     0.284013   
S17      S      0.891410000000     0.965980000000     0.787960000000     0.291025   
S18      S      0.092340000000     0.912970000000     0.804530000000     0.285154   
S19      S      0.179720000000     0.950400000000     0.087460000000     0.289869   
S20      S      0.665170000000     0.059970000000     0.377200000000     0.282983   
S21      S      0.054010000000     0.368570000000     0.663160000000     0.284084   
S22      S      0.922840000000     0.861260000000     0.811360000000     0.280362   
S23      S      0.047340000000     0.877520000000     0.171100000000     0.285582   
S24      S      0.920830000000     0.106140000000     0.162500000000     0.289016   
Zr1      Zr     0.985150000000     0.987350000000     0.066340000000     1.43405    
Zr2      Zr     0.984610000000     0.903970000000     0.988630000000     1.4323     
Zr3      Zr     0.983730000000     0.065440000000     0.982830000000     1.43052    
Zr4      Zr     0.903590000000     0.984320000000     0.986530000000     1.43295    
Zr5      Zr     0.064890000000     0.985430000000     0.985080000000     1.43341    
Zr6      Zr     0.983270000000     0.980900000000     0.905260000000     1.43812    
Zr7      Zr     0.985430000000     0.487180000000     0.404760000000     1.42646    
Zr8      Zr     0.979610000000     0.565390000000     0.487190000000     1.42964    
Zr9      Zr     0.986930000000     0.404250000000     0.483100000000     1.43698    
Zr10     Zr     0.902690000000     0.481410000000     0.483190000000     1.42763    
Zr11     Zr     0.064050000000     0.488300000000     0.487400000000     1.43188    
Zr12     Zr     0.981190000000     0.482650000000     0.565700000000     1.44511    
Zr13     Zr     0.482910000000     0.992950000000     0.404530000000     1.42585    
Zr14     Zr     0.403000000000     0.988190000000     0.485730000000     1.42949    
Zr15     Zr     0.563910000000     0.983890000000     0.483800000000     1.43192    
Zr16     Zr     0.481050000000     0.905080000000     0.477680000000     1.4248     
Zr17     Zr     0.485940000000     0.066450000000     0.492010000000     1.44419    
Zr18     Zr     0.483960000000     0.978080000000     0.565000000000     1.43293    
Zr19     Zr     0.402790000000     0.485280000000     0.988460000000     1.43599    
Zr20     Zr     0.483240000000     0.565870000000     0.978140000000     1.43327    
Zr21     Zr     0.483020000000     0.404530000000     0.991290000000     1.4214     
Zr22     Zr     0.486900000000     0.491860000000     0.065130000000     1.42635    
Zr23     Zr     0.479570000000     0.478630000000     0.904380000000     1.42882    
Zr24     Zr     0.563640000000     0.485040000000     0.981090000000     1.42583    


