data_structure

_audit_creation_method RASPA-1.0
_audit_creation_date 2023-5-25
_audit_author_name 'Poobodin Mano'

_cell_length_a    33.4725
_cell_length_b    33.3907
_cell_length_c    33.3408
_cell_angle_alpha 90
_cell_angle_beta  90
_cell_angle_gamma 90
_cell_volume      37264

_symmetry_cell_setting          triclinic
_symmetry_space_group_name_Hall 'P 1'
_symmetry_space_group_name_H-M  'P 1'
_symmetry_Int_Tables_number     1

_symmetry_equiv_pos_as_xyz 'x,y,z'

loop_
_atom_site_label
_atom_site_type_symbol
_atom_site_fract_x
_atom_site_fract_y
_atom_site_fract_z
_atom_site_charge
C1       C      0.987660000000     0.089950000000     0.088760000000     0.393822   
C2       C      0.980370000000     0.885580000000     0.089560000000     0.389861   
C3       C      0.881290000000     0.987020000000     0.089130000000     0.388618   
C4       C      0.085030000000     0.981200000000     0.089120000000     0.396339   
C5       C      0.985080000000     0.885800000000     0.884990000000     0.394794   
C6       C      0.988000000000     0.090760000000     0.884310000000     0.388496   
C7       C      0.879850000000     0.887850000000     0.981720000000     0.393479   
C8       C      0.083580000000     0.883490000000     0.989730000000     0.394604   
C9       C      0.087840000000     0.087850000000     0.985110000000     0.392482   
C10      C      0.883980000000     0.092090000000     0.990050000000     0.39326    
C11      C      0.882690000000     0.984880000000     0.884460000000     0.396901   
C12      C      0.086250000000     0.989080000000     0.884320000000     0.391617   
C13      C      0.978210000000     0.388550000000     0.381910000000     0.394152   
C14      C      0.994770000000     0.591790000000     0.389380000000     0.392543   
C15      C      0.885940000000     0.496820000000     0.382720000000     0.391256   
C16      C      0.090330000000     0.489280000000     0.391080000000     0.392323   
C17      C      0.980160000000     0.585410000000     0.593430000000     0.394177   
C18      C      0.991110000000     0.380800000000     0.584730000000     0.396102   
C19      C      0.886560000000     0.592960000000     0.490260000000     0.390527   
C20      C      0.091090000000     0.583040000000     0.499020000000     0.391699   
C21      C      0.081380000000     0.379290000000     0.484670000000     0.389888   
C22      C      0.877740000000     0.388450000000     0.483700000000     0.391681   
C23      C      0.878520000000     0.483960000000     0.587060000000     0.394753   
C24      C      0.078270000000     0.471220000000     0.597250000000     0.390925   
C25      C      0.583920000000     0.983580000000     0.383480000000     0.397051   
C26      C      0.380280000000     0.992400000000     0.383530000000     0.395856   
C27      C      0.497840000000     0.893170000000     0.374890000000     0.392873   
C28      C      0.475450000000     0.092610000000     0.387370000000     0.39541    
C29      C      0.381660000000     0.973320000000     0.587080000000     0.391124   
C30      C      0.584740000000     0.983020000000     0.586880000000     0.393182   
C31      C      0.385980000000     0.878630000000     0.475720000000     0.389593   
C32      C      0.376730000000     0.082940000000     0.491540000000     0.392405   
C33      C      0.580930000000     0.092190000000     0.487150000000     0.389741   
C34      C      0.589460000000     0.888150000000     0.475830000000     0.389559   
C35      C      0.482190000000     0.879070000000     0.581110000000     0.393934   
C36      C      0.477520000000     0.083690000000     0.591720000000     0.39096    
C37      C      0.384170000000     0.383200000000     0.993490000000     0.393998   
C38      C      0.379140000000     0.587250000000     0.982190000000     0.392101   
C39      C      0.383730000000     0.484260000000     0.091260000000     0.390492   
C40      C      0.380300000000     0.486620000000     0.885750000000     0.389251   
C41      C      0.583200000000     0.592320000000     0.989530000000     0.391225   
C42      C      0.587880000000     0.387850000000     0.981980000000     0.391908   
C43      C      0.481510000000     0.591400000000     0.088340000000     0.389787   
C44      C      0.482440000000     0.587820000000     0.883050000000     0.390214   
C45      C      0.487850000000     0.383280000000     0.886370000000     0.38985    
C46      C      0.489710000000     0.387310000000     0.090960000000     0.391812   
C47      C      0.587750000000     0.489290000000     0.087850000000     0.389253   
C48      C      0.583880000000     0.492240000000     0.883350000000     0.392252   
C49      C      0.480890000000     0.144640000000     0.289200000000    -0.0306122  
C50      C      0.482390000000     0.341010000000     0.192100000000    -0.0299331  
C51      C      0.500400000000     0.316640000000     0.110070000000    -0.00712507 
C52      C      0.499120000000     0.371810000000     0.162720000000    -0.00704366 
C53      C      0.520550000000     0.254210000000     0.233260000000    -0.0545195  
C54      C      0.442000000000     0.232430000000     0.251750000000    -0.0539935  
C55      C      0.488800000000     0.272010000000     0.212560000000     0.0613674  
C56      C      0.483800000000     0.288390000000     0.142040000000    -0.0299785  
C57      C      0.473770000000     0.214360000000     0.272200000000     0.061391   
C58      C      0.478600000000     0.194590000000     0.341970000000    -0.0415103  
C59      C      0.513240000000     0.225600000000     0.262890000000    -0.0567206  
C60      C      0.462700000000     0.164240000000     0.372830000000     0.0372516  
C61      C      0.464600000000     0.112090000000     0.316780000000    -0.00564388 
C62      C      0.449310000000     0.261100000000     0.222170000000    -0.0567313  
C63      C      0.483820000000     0.841700000000     0.279450000000    -0.0313902  
C64      C      0.499820000000     0.643590000000     0.185310000000    -0.0299918  
C65      C      0.466050000000     0.661470000000     0.106660000000    -0.00802069 
C66      C      0.482060000000     0.609620000000     0.160190000000    -0.00724204 
C67      C      0.460130000000     0.723790000000     0.233450000000    -0.0543789  
C68      C      0.533880000000     0.762990000000     0.230940000000    -0.0544351  
C69      C      0.488550000000     0.712350000000     0.204790000000     0.0607485  
C70      C      0.483980000000     0.693070000000     0.134590000000    -0.0297777  
C71      C      0.504940000000     0.775330000000     0.258670000000     0.0607768  
C72      C      0.519640000000     0.798320000000     0.326310000000    -0.0375156  
C73      C      0.468270000000     0.754750000000     0.260480000000    -0.0566557  
C74      C      0.536110000000     0.834620000000     0.349330000000     0.0170915  
C75      C      0.497580000000     0.879180000000     0.301980000000    -0.00610646 
C76      C      0.526040000000     0.731510000000     0.204450000000    -0.0566771  
C77      C      0.484180000000     0.827710000000     0.680350000000    -0.0306649  
C78      C      0.477030000000     0.633400000000     0.780800000000    -0.0299198  
C79      C      0.490770000000     0.658600000000     0.863480000000    -0.00738602 
C80      C      0.491650000000     0.602630000000     0.811290000000    -0.00702388 
C81      C      0.519520000000     0.718890000000     0.740910000000    -0.0544017  
C82      C      0.442730000000     0.741050000000     0.716420000000    -0.0540492  
C83      C      0.486190000000     0.701900000000     0.759750000000     0.0611505  
C84      C      0.476430000000     0.686540000000     0.830090000000    -0.029862   
C85      C      0.476060000000     0.758210000000     0.697740000000     0.0613107  
C86      C      0.486730000000     0.777290000000     0.628230000000    -0.0413848  
C87      C      0.514640000000     0.746880000000     0.710160000000    -0.0567349  
C88      C      0.472650000000     0.806930000000     0.595770000000     0.0370033  
C89      C      0.469500000000     0.859780000000     0.651320000000    -0.00558061 
C90      C      0.447610000000     0.713090000000     0.747190000000    -0.0566846  
C91      C      0.483250000000     0.182500000000     0.643600000000    -0.0299967  
C92      C      0.482880000000     0.281590000000     0.839960000000    -0.0300342  
C93      C      0.497170000000     0.364170000000     0.815290000000    -0.00785645 
C94      C      0.498530000000     0.311750000000     0.870700000000    -0.0075634  
C95      C      0.522060000000     0.241470000000     0.752670000000    -0.0541105  
C96      C      0.444230000000     0.219270000000     0.731870000000    -0.0540103  
C97      C      0.489640000000     0.260950000000     0.770760000000     0.060577   
C98      C      0.481780000000     0.331330000000     0.787160000000    -0.0300452  
C99      C      0.476650000000     0.199990000000     0.713580000000     0.0610648  
C100     C      0.484370000000     0.130230000000     0.693860000000    -0.0410791  
C101     C      0.515760000000     0.211250000000     0.724310000000    -0.0567502  
C102     C      0.468700000000     0.098470000000     0.664140000000     0.0371041  
C103     C      0.466960000000     0.154190000000     0.611550000000    -0.00675756 
C104     C      0.450530000000     0.249470000000     0.760250000000    -0.0564323  
C105     C      0.824970000000     0.289510000000     0.476670000000    -0.0303472  
C106     C      0.627230000000     0.194430000000     0.492170000000    -0.0299387  
C107     C      0.651100000000     0.111770000000     0.476950000000    -0.00737164 
C108     C      0.595460000000     0.164150000000     0.479190000000    -0.00750132 
C109     C      0.712560000000     0.232020000000     0.445520000000    -0.0542276  
C110     C      0.738130000000     0.256260000000     0.521570000000    -0.0541793  
C111     C      0.695580000000     0.214570000000     0.479730000000     0.0608669  
C112     C      0.679740000000     0.144790000000     0.490260000000    -0.029783   
C113     C      0.755290000000     0.273480000000     0.487380000000     0.061598   
C114     C      0.775710000000     0.342370000000     0.476230000000    -0.0410698  
C115     C      0.742210000000     0.261280000000     0.449180000000    -0.057025   
C116     C      0.805650000000     0.373870000000     0.491290000000     0.0374323  
C117     C      0.858030000000     0.317700000000     0.491020000000    -0.00601153 
C118     C      0.708520000000     0.227020000000     0.517930000000    -0.0564569  
C119     C      0.788180000000     0.645150000000     0.479870000000    -0.0305051  
C120     C      0.691260000000     0.843160000000     0.480860000000    -0.0301173  
C121     C      0.610060000000     0.818570000000     0.461060000000    -0.00724449 
C122     C      0.661400000000     0.874360000000     0.465500000000    -0.00799442 
C123     C      0.732430000000     0.756150000000     0.439980000000    -0.0541703  
C124     C      0.751530000000     0.733640000000     0.518430000000    -0.0540779  
C125     C      0.712540000000     0.774320000000     0.472190000000     0.0605387  
C126     C      0.642120000000     0.789980000000     0.476800000000    -0.0303109  
C127     C      0.771270000000     0.715350000000     0.486230000000     0.0610784  
C128     C      0.840730000000     0.694820000000     0.480130000000    -0.0413396  
C129     C      0.761550000000     0.726870000000     0.446800000000    -0.0567716  
C130     C      0.871500000000     0.665330000000     0.497650000000     0.0373609  
C131     C      0.815730000000     0.612830000000     0.497030000000    -0.00629469 
C132     C      0.722380000000     0.762830000000     0.511620000000    -0.0563985  
C133     C      0.274920000000     0.128020000000     0.484030000000    -0.0304462  
C134     C      0.178870000000     0.325550000000     0.491590000000    -0.0297282  
C135     C      0.095510000000     0.307550000000     0.473610000000    -0.00754707 
C136     C      0.151740000000     0.359020000000     0.476340000000    -0.00759927 
C137     C      0.214090000000     0.238380000000     0.449080000000    -0.0540902  
C138     C      0.233550000000     0.213510000000     0.526750000000    -0.0541483  
C139     C      0.194600000000     0.255690000000     0.481960000000     0.0609812  
C140     C      0.125600000000     0.276630000000     0.488900000000    -0.0298306  
C141     C      0.253330000000     0.196500000000     0.493900000000     0.0615503  
C142     C      0.323780000000     0.181320000000     0.487980000000    -0.0413119  
C143     C      0.243250000000     0.208990000000     0.454860000000    -0.0568637  
C144     C      0.356420000000     0.153130000000     0.503870000000     0.0378528  
C145     C      0.304650000000     0.096850000000     0.499520000000    -0.00571417 
C146     C      0.204380000000     0.242880000000     0.520980000000    -0.0565023  
C147     C      0.143560000000     0.680900000000     0.491670000000    -0.0305095  
C148     C      0.341180000000     0.776830000000     0.482860000000    -0.0301279  
C149     C      0.315460000000     0.858610000000     0.466330000000    -0.00748033 
C150     C      0.371060000000     0.806770000000     0.465250000000    -0.0072875  
C151     C      0.252310000000     0.735950000000     0.447820000000    -0.0540523  
C152     C      0.233800000000     0.716820000000     0.527330000000    -0.0537792  
C153     C      0.272010000000     0.755860000000     0.479080000000     0.0609909  
C154     C      0.288240000000     0.826320000000     0.483910000000    -0.0297846  
C155     C      0.213760000000     0.697260000000     0.496070000000     0.061191   
C156     C      0.192910000000     0.627790000000     0.491800000000    -0.0416138  
C157     C      0.223440000000     0.706850000000     0.456100000000    -0.0565971  
C158     C      0.163100000000     0.597250000000     0.509200000000     0.0383649  
C159     C      0.111430000000     0.653550000000     0.509310000000    -0.00577865 
C160     C      0.262730000000     0.745860000000     0.519050000000    -0.0565052  
C161     C      0.787130000000     0.494190000000     0.331480000000    -0.0304073  
C162     C      0.688990000000     0.497000000000     0.134820000000    -0.0297861  
C163     C      0.606610000000     0.481860000000     0.159070000000    -0.00753412 
C164     C      0.659280000000     0.481280000000     0.103750000000    -0.00750513 
C165     C      0.728370000000     0.456660000000     0.221920000000    -0.0542849  
C166     C      0.750570000000     0.534430000000     0.243600000000    -0.0540247  
C167     C      0.709200000000     0.489380000000     0.204010000000     0.0608645  
C168     C      0.639150000000     0.497390000000     0.187320000000    -0.0298602  
C169     C      0.769590000000     0.501710000000     0.261670000000     0.0609536  
C170     C      0.839100000000     0.493470000000     0.280930000000    -0.0415026  
C171     C      0.758320000000     0.462620000000     0.250520000000    -0.0566109  
C172     C      0.870980000000     0.508340000000     0.310770000000     0.0380199  
C173     C      0.815730000000     0.509560000000     0.363690000000    -0.00599556 
C174     C      0.720630000000     0.528470000000     0.214970000000    -0.0566452  
C175     C      0.142210000000     0.484920000000     0.292130000000    -0.0301836  
C176     C      0.337890000000     0.489350000000     0.193430000000    -0.029843   
C177     C      0.312990000000     0.475820000000     0.110680000000    -0.00834685 
C178     C      0.368540000000     0.474220000000     0.163000000000    -0.00761791 
C179     C      0.251330000000     0.448390000000     0.232740000000    -0.0541862  
C180     C      0.229840000000     0.525740000000     0.256560000000    -0.0539067  
C181     C      0.269100000000     0.481480000000     0.214060000000     0.0611403  
C182     C      0.285210000000     0.490940000000     0.143810000000    -0.0295768  
C183     C      0.211850000000     0.492660000000     0.275020000000     0.0613252  
C184     C      0.192160000000     0.483250000000     0.344560000000    -0.0412371  
C185     C      0.222920000000     0.453790000000     0.262990000000    -0.0565474  
C186     C      0.162430000000     0.498170000000     0.376560000000     0.0365784  
C187     C      0.110090000000     0.500480000000     0.320640000000    -0.00678204 
C188     C      0.258270000000     0.520350000000     0.226340000000    -0.0564613  
C189     C      0.131690000000     0.491870000000     0.690990000000    -0.0312082  
C190     C      0.328340000000     0.470990000000     0.787880000000    -0.0300796  
C191     C      0.310140000000     0.501350000000     0.867870000000    -0.00805713 
C192     C      0.362140000000     0.487730000000     0.813910000000    -0.00763906 
C193     C      0.248890000000     0.512300000000     0.740330000000    -0.0537664  
C194     C      0.208980000000     0.438800000000     0.740650000000    -0.0545214  
C195     C      0.259800000000     0.482980000000     0.768410000000     0.0603661  
C196     C      0.278750000000     0.484680000000     0.838920000000    -0.0299954  
C197     C      0.197070000000     0.468650000000     0.713660000000     0.0610659  
C198     C      0.173740000000     0.452250000000     0.646180000000    -0.0376003  
C199     C      0.218090000000     0.505160000000     0.712830000000    -0.0566445  
C200     C      0.137010000000     0.434630000000     0.624820000000     0.0173242  
C201     C      0.093750000000     0.477690000000     0.669460000000    -0.00644675 
C202     C      0.240340000000     0.445590000000     0.767520000000    -0.0563227  
C203     C      0.778470000000     0.497140000000     0.634380000000    -0.030113   
C204     C      0.682490000000     0.488120000000     0.832050000000    -0.0300366  
C205     C      0.599340000000     0.504870000000     0.812140000000    -0.00711303 
C206     C      0.654380000000     0.503140000000     0.864810000000    -0.00692047 
C207     C      0.719730000000     0.529660000000     0.745740000000    -0.0542313  
C208     C      0.737000000000     0.452050000000     0.719380000000    -0.0542596  
C209     C      0.699340000000     0.497040000000     0.762380000000     0.0613129  
C210     C      0.630120000000     0.489960000000     0.781860000000    -0.0298801  
C211     C      0.757240000000     0.484670000000     0.702620000000     0.0620707  
C212     C      0.827590000000     0.486690000000     0.686620000000    -0.0410424  
C213     C      0.748630000000     0.523650000000     0.716170000000    -0.0570227  
C214     C      0.858560000000     0.470000000000     0.657050000000     0.0377655  
C215     C      0.806320000000     0.481000000000     0.601930000000    -0.00633801 
C216     C      0.708330000000     0.458030000000     0.749140000000    -0.0564907  
C217     C      0.779160000000     0.840450000000     0.987010000000    -0.0325326  
C218     C      0.682340000000     0.643090000000     0.983540000000    -0.0295927  
C219     C      0.599190000000     0.663910000000     0.999320000000    -0.00946983 
C220     C      0.653920000000     0.610910000000     0.999300000000    -0.00935621 
C221     C      0.719290000000     0.730780000000     0.023630000000    -0.0528098  
C222     C      0.739630000000     0.753560000000     0.945550000000    -0.0538671  
C223     C      0.699850000000     0.712860000000     0.991050000000     0.0593018  
C224     C      0.630400000000     0.693540000000     0.983700000000    -0.0295201  
C225     C      0.759100000000     0.771440000000     0.978140000000     0.05946    
C226     C      0.829250000000     0.788160000000     0.984160000000    -0.0431029  
C227     C      0.748700000000     0.759810000000     0.017380000000    -0.0552156  
C228     C      0.861540000000     0.817150000000     0.968800000000     0.0368679  
C229     C      0.808390000000     0.872080000000     0.971570000000    -0.00547411 
C230     C      0.710250000000     0.724470000000     0.951800000000    -0.0563968  
C231     C      0.785010000000     0.143100000000     0.984400000000    -0.0342244  
C232     C      0.688800000000     0.340820000000     0.986530000000    -0.0320734  
C233     C      0.606400000000     0.317090000000     0.971020000000    -0.00677364 
C234     C      0.659140000000     0.371990000000     0.970940000000    -0.0069295  
C235     C      0.727540000000     0.253210000000     0.946620000000    -0.0544441  
C236     C      0.748620000000     0.231350000000     0.024780000000    -0.0521461  
C237     C      0.708460000000     0.271530000000     0.979200000000     0.0595357  
C238     C      0.638580000000     0.288580000000     0.986580000000    -0.0320823  
C239     C      0.767510000000     0.212850000000     0.992200000000     0.0583942  
C240     C      0.836970000000     0.193570000000     0.985250000000    -0.0447423  
C241     C      0.756870000000     0.224120000000     0.952930000000    -0.0559798  
C242     C      0.868440000000     0.163800000000     0.000840000000     0.0412954  
C243     C      0.813280000000     0.110770000000     0.000110000000    -0.00108566 
C244     C      0.719330000000     0.260490000000     0.018470000000    -0.0553134  
C245     C      0.181930000000     0.831700000000     0.980220000000    -0.0298753  
C246     C      0.278220000000     0.634230000000     0.987450000000    -0.0321693  
C247     C      0.360120000000     0.657410000000     0.968720000000    -0.00689662 
C248     C      0.307570000000     0.602460000000     0.972540000000    -0.00668086 
C249     C      0.238180000000     0.720070000000     0.944980000000    -0.0538957  
C250     C      0.219310000000     0.745020000000     0.022770000000    -0.0526075  
C251     C      0.258200000000     0.703080000000     0.977710000000     0.0593207  
C252     C      0.328270000000     0.686520000000     0.983830000000    -0.0320189  
C253     C      0.199500000000     0.762210000000     0.990030000000     0.0601208  
C254     C      0.129890000000     0.781590000000     0.984410000000    -0.0432388  
C255     C      0.209010000000     0.749410000000     0.950950000000    -0.0566625  
C256     C      0.099140000000     0.811820000000     0.000510000000     0.0403894  
C257     C      0.154580000000     0.864580000000     0.996340000000    -0.00826894 
C258     C      0.248420000000     0.715670000000     0.016810000000    -0.0548224  
C259     C      0.337110000000     0.282010000000     0.988200000000    -0.0341571  
C260     C      0.138630000000     0.187320000000     0.991980000000    -0.0319714  
C261     C      0.159390000000     0.103740000000     0.977480000000    -0.00735625 
C262     C      0.106490000000     0.158780000000     0.976380000000    -0.00654381 
C263     C      0.227250000000     0.222190000000     0.951720000000    -0.0544394  
C264     C      0.249240000000     0.244340000000     0.029530000000    -0.0519383  
C265     C      0.208440000000     0.204170000000     0.984600000000     0.060053   
C266     C      0.188640000000     0.135040000000     0.993300000000    -0.0315295  
C267     C      0.267990000000     0.262420000000     0.996650000000     0.0586602  
C268     C      0.285060000000     0.332370000000     0.989190000000    -0.0446999  
C269     C      0.256790000000     0.251150000000     0.957550000000    -0.0559351  
C270     C      0.313500000000     0.364780000000     0.005030000000     0.0416581  
C271     C      0.368490000000     0.311560000000     0.003600000000    -0.0011514  
C272     C      0.219670000000     0.215420000000     0.023700000000    -0.0553915  
C273     C      0.822860000000     0.005110000000     0.793610000000    -0.0281998  
C274     C      0.683730000000     0.962870000000     0.634970000000    -0.0297026  
C275     C      0.604720000000     0.992400000000     0.657000000000    -0.00873101 
C276     C      0.647970000000     0.952990000000     0.608160000000    -0.00842133 
C277     C      0.693750000000     0.971730000000     0.747110000000    -0.0534226  
C278     C      0.773830000000     0.972060000000     0.724480000000    -0.0536093  
C279     C      0.703280000000     0.972620000000     0.706050000000     0.0594608  
C280     C      0.643170000000     0.003690000000     0.678780000000    -0.02741    
C281     C      0.764270000000     0.972490000000     0.765490000000     0.0601827  
C282     C      0.784520000000     0.960960000000     0.836270000000    -0.0405536  
C283     C      0.723510000000     0.973280000000     0.776390000000    -0.0549418  
C284     C      0.821110000000     0.951300000000     0.862540000000     0.0343302  
C285     C      0.861970000000     0.994870000000     0.814680000000    -0.00751552 
C286     C      0.744090000000     0.973640000000     0.695220000000    -0.0545782  
C287     C      0.135110000000     0.979940000000     0.783860000000    -0.0301676  
C288     C      0.333110000000     0.977900000000     0.687420000000    -0.0321439  
C289     C      0.311010000000     0.960340000000     0.604690000000    -0.00697119 
C290     C      0.364770000000     0.961850000000     0.658440000000    -0.00675674 
C291     C      0.244570000000     0.939110000000     0.725590000000    -0.0540025  
C292     C      0.223690000000     0.017700000000     0.745530000000    -0.0523461  
C293     C      0.263570000000     0.971090000000     0.706180000000     0.05936    
C294     C      0.281850000000     0.976540000000     0.636090000000    -0.0319205  
C295     C      0.204750000000     0.985720000000     0.764980000000     0.0595898  
C296     C      0.186280000000     0.979700000000     0.835110000000    -0.0410232  
C297     C      0.215380000000     0.946220000000     0.754750000000    -0.056459   
C298     C      0.157830000000     0.996940000000     0.866980000000     0.0355587  
C299     C      0.103790000000     0.996930000000     0.812690000000    -0.00803486 
C300     C      0.252830000000     0.010600000000     0.716340000000    -0.0550144  
C301     C      0.132960000000     0.987580000000     0.189430000000    -0.0325247  
C302     C      0.330850000000     0.990510000000     0.283990000000    -0.0352132  
C303     C      0.309280000000     0.004370000000     0.367530000000    -0.00241001 
C304     C      0.362320000000     0.006380000000     0.313070000000    -0.00191186 
C305     C      0.241740000000     0.027810000000     0.247800000000    -0.0525689  
C306     C      0.221750000000     0.949130000000     0.227110000000    -0.0544133  
C307     C      0.261140000000     0.995780000000     0.266620000000     0.0587189  
C308     C      0.280200000000     0.988560000000     0.336070000000    -0.0333956  
C309     C      0.202310000000     0.981150000000     0.208350000000     0.0604701  
C310     C      0.184530000000     0.986650000000     0.138350000000    -0.0431855  
C311     C      0.212550000000     0.020680000000     0.218790000000    -0.0557021  
C312     C      0.155960000000     0.969770000000     0.106580000000     0.0376492  
C313     C      0.101700000000     0.970910000000     0.160560000000    -0.00502896 
C314     C      0.251000000000     0.956250000000     0.256030000000    -0.0559788  
C315     C      0.674440000000     0.994810000000     0.322060000000    -0.0344087  
C316     C      0.780250000000     0.986690000000     0.138530000000    -0.033393   
C317     C      0.863390000000     0.969350000000     0.158380000000    -0.00647129 
C318     C      0.813750000000     0.005130000000     0.112880000000    -0.00550003 
C319     C      0.773820000000     0.966830000000     0.249700000000    -0.0534795  
C320     C      0.694000000000     0.955670000000     0.228270000000    -0.0550481  
C321     C      0.763620000000     0.967350000000     0.208810000000     0.0589618  
C322     C      0.827570000000     0.949290000000     0.178300000000    -0.0304668  
C323     C      0.704520000000     0.955860000000     0.269330000000     0.0592672  
C324     C      0.634390000000     0.942900000000     0.291090000000    -0.0381596  
C325     C      0.745180000000     0.959450000000     0.279170000000    -0.0540165  
C326     C      0.606320000000     0.940910000000     0.328060000000     0.0170235  
C327     C      0.653160000000     0.990500000000     0.362000000000    -0.00468561 
C328     C      0.723230000000     0.960240000000     0.198480000000    -0.0544519  
C329     C      0.987680000000     0.285220000000     0.639370000000    -0.0319019  
C330     C      0.012350000000     0.188100000000     0.834140000000    -0.0269978  
C331     C      0.978360000000     0.110240000000     0.813460000000    -0.00769402 
C332     C      0.993430000000     0.162560000000     0.867280000000    -0.01063    
C333     C      0.972840000000     0.239940000000     0.757550000000    -0.0561331  
C334     C      0.043450000000     0.236990000000     0.712830000000    -0.0538335  
C335     C      0.000940000000     0.209970000000     0.765720000000     0.063435   
C336     C      0.997370000000     0.138920000000     0.783100000000    -0.0313839  
C337     C      0.014490000000     0.265880000000     0.703490000000     0.0614049  
C338     C      0.024900000000     0.333840000000     0.679820000000    -0.0360874  
C339     C      0.979570000000     0.267870000000     0.727090000000    -0.0572392  
C340     C      0.031850000000     0.360640000000     0.642730000000     0.01732    
C341     C      0.995510000000     0.309060000000     0.601200000000    -0.00759552 
C342     C      0.037080000000     0.209530000000     0.744010000000    -0.0571557  
C343     C      0.979450000000     0.834370000000     0.785660000000    -0.0302545  
C344     C      0.984340000000     0.633030000000     0.694730000000    -0.0319082  
C345     C      0.970420000000     0.656220000000     0.611610000000    -0.00733228 
C346     C      0.969420000000     0.601530000000     0.664930000000    -0.0068906  
C347     C      0.943770000000     0.722380000000     0.729830000000    -0.05386    
C348     C      0.021050000000     0.744520000000     0.752740000000    -0.0527337  
C349     C      0.976710000000     0.702800000000     0.712980000000     0.0600473  
C350     C      0.986050000000     0.684590000000     0.643690000000    -0.0313056  
C351     C      0.988110000000     0.764310000000     0.769340000000     0.0603025  
C352     C      0.979780000000     0.784420000000     0.838310000000    -0.0412816  
C353     C      0.949270000000     0.752880000000     0.757890000000    -0.0565494  
C354     C      0.995170000000     0.814210000000     0.869670000000     0.0372477  
C355     C      0.994440000000     0.867130000000     0.813950000000    -0.0071294  
C356     C      0.015540000000     0.713950000000     0.724740000000    -0.0552385  
C357     C      0.987460000000     0.692680000000     0.341520000000    -0.0339947  
C358     C      0.988290000000     0.786050000000     0.140460000000    -0.0320453  
C359     C      0.970980000000     0.869120000000     0.161120000000    -0.00661545 
C360     C      0.972320000000     0.814300000000     0.107980000000    -0.00682196 
C361     C      0.948930000000     0.750300000000     0.230160000000    -0.0541403  
C362     C      0.027060000000     0.730630000000     0.252310000000    -0.0518513  
C363     C      0.981080000000     0.768880000000     0.210720000000     0.0594261  
C364     C      0.987250000000     0.838270000000     0.190780000000    -0.0318706  
C365     C      0.994920000000     0.711990000000     0.271690000000     0.0585561  
C366     C      0.989550000000     0.641970000000     0.289650000000    -0.0446506  
C367     C      0.955640000000     0.722040000000     0.260380000000    -0.0559781  
C368     C      0.006430000000     0.610250000000     0.318390000000     0.0412789  
C369     C      0.003700000000     0.663680000000     0.373250000000    -0.001547   
C370     C      0.020350000000     0.758870000000     0.222090000000    -0.0551671  
C371     C      0.979000000000     0.141250000000     0.187730000000    -0.0302633  
C372     C      0.985580000000     0.341110000000     0.281080000000    -0.0320832  
C373     C      0.962550000000     0.319040000000     0.362440000000    -0.00662141 
C374     C      0.970380000000     0.373520000000     0.309710000000    -0.00688976 
C375     C      0.942880000000     0.254390000000     0.241490000000    -0.0539077  
C376     C      0.020690000000     0.228670000000     0.225000000000    -0.0527664  
C377     C      0.975140000000     0.272110000000     0.261480000000     0.0595813  
C378     C      0.978490000000     0.289360000000     0.331610000000    -0.0319302  
C379     C      0.988430000000     0.210900000000     0.205070000000     0.060197   
C380     C      0.983940000000     0.191380000000     0.135440000000    -0.0435034  
C381     C      0.949330000000     0.224000000000     0.213460000000    -0.0567128  
C382     C      0.000100000000     0.161110000000     0.104850000000     0.0420645  
C383     C      0.994820000000     0.108210000000     0.160220000000    -0.00738411 
C384     C      0.014240000000     0.259010000000     0.253060000000    -0.055066   
H1       H      0.924940000000     0.931200000000     0.043740000000     0.210674   
H2       H      0.042240000000     0.043500000000     0.044170000000     0.209487   
H3       H      0.927330000000     0.046600000000     0.929150000000     0.206595   
H4       H      0.040280000000     0.929690000000     0.929590000000     0.209496   
H5       H      0.931840000000     0.548300000000     0.431270000000     0.209397   
H6       H      0.040880000000     0.428890000000     0.430600000000     0.207661   
H7       H      0.922950000000     0.428880000000     0.542070000000     0.209762   
H8       H      0.041450000000     0.539150000000     0.550780000000     0.208434   
H9       H      0.427890000000     0.928690000000     0.423040000000     0.207128   
H10      H      0.537860000000     0.048010000000     0.429310000000     0.206667   
H11      H      0.542060000000     0.927590000000     0.539070000000     0.206461   
H12      H      0.423530000000     0.037470000000     0.544690000000     0.211637   
H13      H      0.425630000000     0.544440000000     0.044540000000     0.207594   
H14      H      0.426570000000     0.427640000000     0.931210000000     0.206685   
H15      H      0.543340000000     0.432280000000     0.043920000000     0.210195   
H16      H      0.538510000000     0.545470000000     0.928810000000     0.209754   
H17      H      0.424260000000     0.274550000000     0.206680000000     0.0409169  
H18      H      0.471530000000     0.137600000000     0.257930000000     0.0342602  
H19      H      0.468510000000     0.225430000000     0.349870000000     0.0388872  
H20      H      0.533140000000     0.311590000000     0.107380000000     0.0358832  
H21      H      0.432120000000     0.108380000000     0.310820000000     0.0394408  
H22      H      0.491970000000     0.349540000000     0.222930000000     0.0337114  
H23      H      0.494500000000     0.257530000000     0.135400000000     0.0338859  
H24      H      0.484560000000     0.401070000000     0.169050000000     0.0391942  
H25      H      0.478140000000     0.170550000000     0.401680000000     0.0305466  
H26      H      0.411510000000     0.223990000000     0.258610000000     0.0450517  
H27      H      0.479450000000     0.083430000000     0.308680000000     0.0384211  
H28      H      0.551050000000     0.262430000000     0.226200000000     0.0437971  
H29      H      0.514150000000     0.144270000000     0.290360000000     0.0362665  
H30      H      0.486620000000     0.308590000000     0.080810000000     0.0392291  
H31      H      0.449140000000     0.341770000000     0.191010000000     0.0376084  
H32      H      0.450560000000     0.288400000000     0.140370000000     0.0376217  
H33      H      0.538310000000     0.212020000000     0.278210000000     0.0400252  
H34      H      0.511850000000     0.194680000000     0.343510000000     0.0378996  
H35      H      0.531650000000     0.375410000000     0.168460000000     0.0357374  
H36      H      0.548960000000     0.722600000000     0.183390000000     0.0402888  
H37      H      0.480170000000     0.849460000000     0.247190000000     0.0338711  
H38      H      0.541240000000     0.773060000000     0.328650000000     0.0354301  
H39      H      0.432940000000     0.662740000000     0.109180000000     0.0353133  
H40      H      0.523860000000     0.892070000000     0.286230000000     0.035167   
H41      H      0.496580000000     0.635590000000     0.217570000000     0.0334813  
H42      H      0.468700000000     0.722120000000     0.128880000000     0.0337588  
H43      H      0.500670000000     0.582420000000     0.164840000000     0.0390553  
H44      H      0.539570000000     0.826300000000     0.381420000000     0.0342214  
H45      H      0.562450000000     0.778160000000     0.229640000000     0.0433103  
H46      H      0.473110000000     0.901680000000     0.300740000000     0.0372966  
H47      H      0.431450000000     0.708830000000     0.234580000000     0.0436258  
H48      H      0.454210000000     0.832400000000     0.291440000000     0.0362705  
H49      H      0.473930000000     0.669490000000     0.075290000000     0.0389992  
H50      H      0.584950000000     0.846530000000     0.329650000000     0.0218963  
H51      H      0.532280000000     0.646610000000     0.178580000000     0.0376301  
H52      H      0.516210000000     0.696720000000     0.127210000000     0.0367671  
H53      H      0.445750000000     0.763080000000     0.282200000000     0.0402302  
H54      H      0.491050000000     0.788460000000     0.340260000000     0.0394844  
H55      H      0.451510000000     0.602890000000     0.171450000000     0.0362757  
H56      H      0.421380000000     0.700330000000     0.761220000000     0.0405533  
H57      H      0.472480000000     0.834950000000     0.710770000000     0.034122   
H58      H      0.477990000000     0.746120000000     0.620010000000     0.0387926  
H59      H      0.523150000000     0.663950000000     0.868690000000     0.0361672  
H60      H      0.436710000000     0.863500000000     0.655220000000     0.0400531  
H61      H      0.487970000000     0.624330000000     0.750590000000     0.0338003  
H62      H      0.487050000000     0.717390000000     0.836930000000     0.0335438  
H63      H      0.476360000000     0.573750000000     0.804890000000     0.0391747  
H64      H      0.490660000000     0.800940000000     0.568380000000     0.0299468  
H65      H      0.412900000000     0.749680000000     0.707280000000     0.0450026  
H66      H      0.483790000000     0.888590000000     0.659930000000     0.0383167  
H67      H      0.549350000000     0.710500000000     0.750260000000     0.0439308  
H68      H      0.517430000000     0.828460000000     0.681660000000     0.0362505  
H69      H      0.474740000000     0.666660000000     0.891560000000     0.0383699  
H70      H      0.443750000000     0.633270000000     0.780180000000     0.0371112  
H71      H      0.443150000000     0.686960000000     0.829710000000     0.0366548  
H72      H      0.540860000000     0.759910000000     0.696380000000     0.0401417  
H73      H      0.519990000000     0.777920000000     0.629380000000     0.0377485  
H74      H      0.524220000000     0.597770000000     0.806760000000     0.0358563  
H75      H      0.424950000000     0.263920000000     0.773830000000     0.0399764  
H76      H      0.472690000000     0.213350000000     0.636610000000     0.0345331  
H77      H      0.475660000000     0.122200000000     0.725130000000     0.0389521  
H78      H      0.529640000000     0.368530000000     0.809740000000     0.038682   
H79      H      0.434300000000     0.159350000000     0.608610000000     0.0409009  
H80      H      0.493760000000     0.251270000000     0.848560000000     0.0336421  
H81      H      0.491940000000     0.338350000000     0.756160000000     0.0338212  
H82      H      0.484250000000     0.305050000000     0.900050000000     0.0380276  
H83      H      0.485700000000     0.070430000000     0.669850000000     0.0315326  
H84      H      0.413980000000     0.211020000000     0.723830000000     0.0451367  
H85      H      0.480940000000     0.162390000000     0.582440000000     0.0400798  
H86      H      0.552310000000     0.249910000000     0.760500000000     0.0439146  
H87      H      0.516510000000     0.182480000000     0.642400000000     0.0368558  
H88      H      0.481840000000     0.392660000000     0.807440000000     0.0377973  
H89      H      0.449610000000     0.281250000000     0.840920000000     0.0358802  
H90      H      0.448500000000     0.331530000000     0.787370000000     0.0357187  
H91      H      0.541320000000     0.196950000000     0.710540000000     0.040207   
H92      H      0.517640000000     0.130080000000     0.692900000000     0.0384351  
H93      H      0.531250000000     0.307210000000     0.874360000000     0.0380733  
H94      H      0.696000000000     0.213920000000     0.544830000000     0.0403481  
H95      H      0.831900000000     0.258780000000     0.487630000000     0.0338819  
H96      H      0.744710000000     0.350800000000     0.485180000000     0.0389159  
H97      H      0.655080000000     0.106610000000     0.444240000000     0.0358479  
H98      H      0.863590000000     0.312060000000     0.523420000000     0.0381147  
H99      H      0.617940000000     0.224640000000     0.481570000000     0.0337757  
H100     H      0.710000000000     0.137690000000     0.478350000000     0.0337783  
H101     H      0.567670000000     0.170300000000     0.496420000000     0.0387715  
H102     H      0.799890000000     0.401960000000     0.474310000000     0.0313662  
H103     H      0.747980000000     0.265390000000     0.551130000000     0.0452867  
H104     H      0.885910000000     0.309860000000     0.474660000000     0.0381654  
H105     H      0.702970000000     0.222640000000     0.415960000000     0.0436322  
H106     H      0.824690000000     0.288750000000     0.443270000000     0.0360169  
H107     H      0.659740000000     0.083650000000     0.492600000000     0.0392928  
H108     H      0.628760000000     0.195170000000     0.525540000000     0.0365662  
H109     H      0.681510000000     0.145110000000     0.523630000000     0.0369314  
H110     H      0.755070000000     0.274140000000     0.422330000000     0.0402319  
H111     H      0.776310000000     0.341930000000     0.442820000000     0.0385744  
H112     H      0.588540000000     0.169030000000     0.446940000000     0.036011   
H113     H      0.707360000000     0.776200000000     0.537060000000     0.0400247  
H114     H      0.757060000000     0.638460000000     0.489600000000     0.0339859  
H115     H      0.848640000000     0.726170000000     0.488530000000     0.038719   
H116     H      0.608130000000     0.815300000000     0.427920000000     0.0360067  
H117     H      0.809070000000     0.609190000000     0.529500000000     0.0399877  
H118     H      0.721810000000     0.852570000000     0.471630000000     0.033808   
H119     H      0.635940000000     0.759560000000     0.464620000000     0.0336164  
H120     H      0.667130000000     0.903030000000     0.481460000000     0.0382644  
H121     H      0.900320000000     0.670850000000     0.482000000000     0.0301861  
H122     H      0.758630000000     0.724990000000     0.548920000000     0.0450234  
H123     H      0.808260000000     0.584000000000     0.482110000000     0.0381395  
H124     H      0.725070000000     0.764540000000     0.409480000000     0.0438032  
H125     H      0.789070000000     0.643960000000     0.446490000000     0.0358612  
H126     H      0.580820000000     0.809210000000     0.473780000000     0.0382016  
H127     H      0.690190000000     0.842510000000     0.514240000000     0.0356616  
H128     H      0.640150000000     0.788460000000     0.510120000000     0.036321   
H129     H      0.776260000000     0.713080000000     0.421400000000     0.0401332  
H130     H      0.842030000000     0.693170000000     0.446770000000     0.0378895  
H131     H      0.667080000000     0.879560000000     0.433070000000     0.038508   
H132     H      0.189830000000     0.255870000000     0.546880000000     0.0402623  
H133     H      0.244310000000     0.118550000000     0.493010000000     0.034079   
H134     H      0.329380000000     0.212530000000     0.498510000000     0.0395375  
H135     H      0.091720000000     0.303480000000     0.440720000000     0.0362514  
H136     H      0.298250000000     0.090950000000     0.531720000000     0.0381556  
H137     H      0.210030000000     0.332300000000     0.482050000000     0.0338214  
H138     H      0.116760000000     0.246660000000     0.477270000000     0.0337889  
H139     H      0.159890000000     0.387040000000     0.492410000000     0.0389888  
H140     H      0.384790000000     0.161870000000     0.488880000000     0.033388   
H141     H      0.241100000000     0.204230000000     0.556940000000     0.0450748  
H142     H      0.299380000000     0.068430000000     0.482950000000     0.0389512  
H143     H      0.206920000000     0.248030000000     0.418920000000     0.0439123  
H144     H      0.276160000000     0.128850000000     0.450650000000     0.0370736  
H145     H      0.066160000000     0.301310000000     0.487950000000     0.0392893  
H146     H      0.178070000000     0.325040000000     0.525000000000     0.0364549  
H147     H      0.124380000000     0.275620000000     0.522280000000     0.0366558  
H148     H      0.258180000000     0.196370000000     0.429000000000     0.0409594  
H149     H      0.325470000000     0.181940000000     0.454600000000     0.0406636  
H150     H      0.157860000000     0.363900000000     0.443920000000     0.0359922  
H151     H      0.277520000000     0.760770000000     0.543750000000     0.0411908  
H152     H      0.137210000000     0.712160000000     0.501400000000     0.0342959  
H153     H      0.224030000000     0.619600000000     0.500490000000     0.0397862  
H154     H      0.309290000000     0.861190000000     0.433650000000     0.0351567  
H155     H      0.108960000000     0.659650000000     0.542010000000     0.0374257  
H156     H      0.349600000000     0.746260000000     0.472560000000     0.0343411  
H157     H      0.256990000000     0.832790000000     0.474460000000     0.0337166  
H158     H      0.400850000000     0.800710000000     0.478700000000     0.039794   
H159     H      0.168580000000     0.568360000000     0.493530000000     0.0328683  
H160     H      0.226670000000     0.709730000000     0.558210000000     0.0450073  
H161     H      0.082350000000     0.661750000000     0.495450000000     0.0393364  
H162     H      0.259140000000     0.743330000000     0.416950000000     0.0440056  
H163     H      0.141820000000     0.679840000000     0.458320000000     0.0381323  
H164     H      0.307430000000     0.887710000000     0.480380000000     0.0389192  
H165     H      0.343220000000     0.777520000000     0.516200000000     0.0389824  
H166     H      0.289550000000     0.827770000000     0.517270000000     0.0378163  
H167     H      0.208450000000     0.692150000000     0.431400000000     0.0413156  
H168     H      0.191460000000     0.626290000000     0.458440000000     0.0411134  
H169     H      0.373490000000     0.801430000000     0.432420000000     0.035434   
H170     H      0.706350000000     0.554270000000     0.201540000000     0.0403342  
H171     H      0.756530000000     0.505050000000     0.338800000000     0.0339153  
H172     H      0.847070000000     0.502760000000     0.249810000000     0.039166   
H173     H      0.602120000000     0.449360000000     0.164790000000     0.0360082  
H174     H      0.811110000000     0.542340000000     0.367360000000     0.0373545  
H175     H      0.719410000000     0.486490000000     0.126310000000     0.0338289  
H176     H      0.632090000000     0.487080000000     0.218270000000     0.0335977  
H177     H      0.665710000000     0.496280000000     0.074670000000     0.0390761  
H178     H      0.898840000000     0.491310000000     0.304440000000     0.0316052  
H179     H      0.758870000000     0.564650000000     0.251940000000     0.0445963  
H180     H      0.807480000000     0.495100000000     0.392560000000     0.0389328  
H181     H      0.719920000000     0.426430000000     0.213750000000     0.0438222  
H182     H      0.786740000000     0.460840000000     0.332130000000     0.0370423  
H183     H      0.578160000000     0.497330000000     0.166630000000     0.038724   
H184     H      0.689000000000     0.530360000000     0.134170000000     0.0368643  
H185     H      0.638800000000     0.530750000000     0.187220000000     0.0366257  
H186     H      0.772440000000     0.436810000000     0.264110000000     0.0402628  
H187     H      0.839020000000     0.460110000000     0.281270000000     0.0390029  
H188     H      0.664490000000     0.448660000000     0.099480000000     0.0363329  
H189     H      0.271620000000     0.546410000000     0.212450000000     0.0403286  
H190     H      0.135240000000     0.495950000000     0.261400000000     0.034869   
H191     H      0.223240000000     0.492030000000     0.352820000000     0.0388717  
H192     H      0.307270000000     0.443390000000     0.106140000000     0.0417142  
H193     H      0.106900000000     0.533230000000     0.315950000000     0.0433123  
H194     H      0.346570000000     0.478120000000     0.223650000000     0.0338386  
H195     H      0.254260000000     0.480940000000     0.136790000000     0.0345151  
H196     H      0.397600000000     0.488970000000     0.169570000000     0.0383831  
H197     H      0.168160000000     0.480590000000     0.404300000000     0.0306415  
H198     H      0.221520000000     0.555800000000     0.265450000000     0.045426   
H199     H      0.081230000000     0.486280000000     0.312210000000     0.0391328  
H200     H      0.259410000000     0.418340000000     0.223630000000     0.0445406  
H201     H      0.141320000000     0.451570000000     0.291600000000     0.035938   
H202     H      0.305150000000     0.491490000000     0.082320000000     0.03902    
H203     H      0.338620000000     0.522700000000     0.194190000000     0.0360254  
H204     H      0.285540000000     0.524300000000     0.144090000000     0.0360246  
H205     H      0.209370000000     0.427740000000     0.276700000000     0.0401635  
H206     H      0.191410000000     0.449900000000     0.344060000000     0.0377945  
H207     H      0.372740000000     0.441480000000     0.167460000000     0.0392571  
H208     H      0.248860000000     0.421920000000     0.787950000000     0.0397458  
H209     H      0.124250000000     0.497730000000     0.722990000000     0.0343049  
H210     H      0.198710000000     0.430240000000     0.644940000000     0.0356546  
H211     H      0.308710000000     0.534620000000     0.867090000000     0.0380587  
H212     H      0.079900000000     0.453130000000     0.687150000000     0.036385   
H213     H      0.336500000000     0.475550000000     0.755830000000     0.0336053  
H214     H      0.249750000000     0.499750000000     0.845160000000     0.0340366  
H215     H      0.389270000000     0.469200000000     0.808740000000     0.0371585  
H216     H      0.144680000000     0.428370000000     0.592990000000     0.0340653  
H217     H      0.193550000000     0.410290000000     0.741130000000     0.0433125  
H218     H      0.072200000000     0.503050000000     0.668740000000     0.0375862  
H219     H      0.264130000000     0.540910000000     0.740040000000     0.0440985  
H220     H      0.141780000000     0.520480000000     0.677150000000     0.0370821  
H221     H      0.302090000000     0.491840000000     0.898780000000     0.0387757  
H222     H      0.124640000000     0.387900000000     0.649170000000     0.0219112  
H223     H      0.325280000000     0.438190000000     0.793220000000     0.0361799  
H224     H      0.275050000000     0.452090000000     0.844890000000     0.0356521  
H225     H      0.210190000000     0.528340000000     0.691590000000     0.0413776  
H226     H      0.183710000000     0.479940000000     0.630470000000     0.0413056  
H227     H      0.369010000000     0.518730000000     0.803880000000     0.0389764  
H228     H      0.693290000000     0.432290000000     0.761840000000     0.0406102  
H229     H      0.747090000000     0.491160000000     0.625070000000     0.0345072  
H230     H      0.832800000000     0.474120000000     0.717190000000     0.0390566  
H231     H      0.595600000000     0.537750000000     0.808280000000     0.0354856  
H232     H      0.797280000000     0.449800000000     0.594960000000     0.0410809  
H233     H      0.713330000000     0.498220000000     0.839430000000     0.0337085  
H234     H      0.621770000000     0.501480000000     0.751670000000     0.0338119  
H235     H      0.662280000000     0.487670000000     0.893270000000     0.0386755  
H236     H      0.888020000000     0.482580000000     0.665960000000     0.0316337  
H237     H      0.743680000000     0.421910000000     0.709440000000     0.0455921  
H238     H      0.801910000000     0.499150000000     0.574310000000     0.0397896  
H239     H      0.713270000000     0.559780000000     0.755900000000     0.0439572  
H240     H      0.782470000000     0.530160000000     0.636890000000     0.0368768  
H241     H      0.570190000000     0.490590000000     0.804990000000     0.0390187  
H242     H      0.682240000000     0.454760000000     0.831730000000     0.0373568  
H243     H      0.629160000000     0.456630000000     0.780900000000     0.0370843  
H244     H      0.764270000000     0.549270000000     0.703980000000     0.0407195  
H245     H      0.831640000000     0.519740000000     0.689010000000     0.0392428  
H246     H      0.659530000000     0.535740000000     0.869320000000     0.0361017  
H247     H      0.695820000000     0.710960000000     0.926100000000     0.0402585  
H248     H      0.748480000000     0.849170000000     0.977490000000     0.0339349  
H249     H      0.835730000000     0.757100000000     0.973690000000     0.0390549  
H250     H      0.595060000000     0.668940000000     0.032030000000     0.0399216  
H251     H      0.802610000000     0.877110000000     0.939130000000     0.0400435  
H252     H      0.713090000000     0.635770000000     0.993950000000     0.0333117  
H253     H      0.622190000000     0.724070000000     0.994310000000     0.0330506  
H254     H      0.661650000000     0.582110000000     0.984450000000     0.0384382  
H255     H      0.889800000000     0.809160000000     0.984390000000     0.0307068  
H256     H      0.747400000000     0.762140000000     0.915210000000     0.0451379  
H257     H      0.801960000000     0.900680000000     0.987380000000     0.0377967  
H258     H      0.711680000000     0.722040000000     0.053970000000     0.0436915  
H259     H      0.779990000000     0.840070000000     0.020400000000     0.0372207  
H260     H      0.570240000000     0.670640000000     0.984400000000     0.0382568  
H261     H      0.682240000000     0.642540000000     0.950130000000     0.0361899  
H262     H      0.629760000000     0.693620000000     0.950290000000     0.0358792  
H263     H      0.763380000000     0.773060000000     0.043070000000     0.0398392  
H264     H      0.830490000000     0.787540000000     0.017550000000     0.0395048  
H265     H      0.659130000000     0.607050000000     0.032020000000     0.0399568  
H266     H      0.705080000000     0.274230000000     0.044160000000     0.0401511  
H267     H      0.754180000000     0.135730000000     0.994540000000     0.0343349  
H268     H      0.844710000000     0.224630000000     0.994830000000     0.0390948  
H269     H      0.602610000000     0.312130000000     0.938250000000     0.037972   
H270     H      0.807730000000     0.106540000000     0.032720000000     0.0387947  
H271     H      0.719210000000     0.349190000000     0.975890000000     0.03393    
H272     H      0.631380000000     0.257790000000     0.975990000000     0.0338659  
H273     H      0.665950000000     0.401080000000     0.985670000000     0.0375897  
H274     H      0.896710000000     0.170290000000     0.984550000000     0.0289791  
H275     H      0.756550000000     0.222980000000     0.055130000000     0.0446448  
H276     H      0.805620000000     0.082130000000     0.984920000000     0.0361152  
H277     H      0.719480000000     0.261440000000     0.916270000000     0.0439612  
H278     H      0.785340000000     0.142740000000     0.951000000000     0.036565   
H279     H      0.577680000000     0.309140000000     0.985760000000     0.0378935  
H280     H      0.688900000000     0.341420000000     0.019930000000     0.0376006  
H281     H      0.638010000000     0.288510000000     0.019980000000     0.03759    
H282     H      0.771050000000     0.210300000000     0.927250000000     0.0397429  
H283     H      0.837670000000     0.193320000000     0.951840000000     0.038628   
H284     H      0.663910000000     0.375930000000     0.938170000000     0.0383968  
H285     H      0.263420000000     0.702990000000     0.042610000000     0.0400842  
H286     H      0.213220000000     0.839140000000     0.988770000000     0.033906   
H287     H      0.122440000000     0.750770000000     0.994950000000     0.0394601  
H288     H      0.363010000000     0.660890000000     0.935670000000     0.0383959  
H289     H      0.161730000000     0.869450000000     0.028480000000     0.0441277  
H290     H      0.247580000000     0.625330000000     0.977990000000     0.0341214  
H291     H      0.335100000000     0.716820000000     0.971690000000     0.0338508  
H292     H      0.301230000000     0.574050000000     0.988740000000     0.0376855  
H293     H      0.070320000000     0.805250000000     0.985260000000     0.0313241  
H294     H      0.212240000000     0.754620000000     0.052980000000     0.0454384  
H295     H      0.161590000000     0.892800000000     0.980090000000     0.0389183  
H296     H      0.245410000000     0.710640000000     0.914760000000     0.0439956  
H297     H      0.180120000000     0.831120000000     0.946860000000     0.0360302  
H298     H      0.389190000000     0.666060000000     0.982320000000     0.0376193  
H299     H      0.278980000000     0.635120000000     0.020840000000     0.0376446  
H300     H      0.329730000000     0.688080000000     0.017170000000     0.0374485  
H301     H      0.194100000000     0.762240000000     0.925170000000     0.0405285  
H302     H      0.128010000000     0.781090000000     0.951050000000     0.0399524  
H303     H      0.301980000000     0.597010000000     0.940110000000     0.0377804  
H304     H      0.205530000000     0.201960000000     0.049590000000     0.0406987  
H305     H      0.345540000000     0.251420000000     0.998430000000     0.0343087  
H306     H      0.253780000000     0.339040000000     0.998650000000     0.0391675  
H307     H      0.165100000000     0.099380000000     0.944960000000     0.0414966  
H308     H      0.373350000000     0.306050000000     0.036130000000     0.0393166  
H309     H      0.131630000000     0.218030000000     0.981030000000     0.0345102  
H310     H      0.219290000000     0.126550000000     0.983470000000     0.0345068  
H311     H      0.077790000000     0.166520000000     0.991290000000     0.0396485  
H312     H      0.305750000000     0.393090000000     0.989280000000     0.0290068  
H313     H      0.257480000000     0.252900000000     0.059750000000     0.0449418  
H314     H      0.397140000000     0.305100000000     0.988000000000     0.03568    
H315     H      0.218850000000     0.213820000000     0.921490000000     0.0443919  
H316     H      0.337250000000     0.282200000000     0.954790000000     0.0361145  
H317     H      0.165730000000     0.074850000000     0.992810000000     0.0390438  
H318     H      0.137770000000     0.187750000000     0.025390000000     0.0390224  
H319     H      0.187990000000     0.134940000000     0.026700000000     0.0378434  
H320     H      0.270690000000     0.264870000000     0.931660000000     0.0396417  
H321     H      0.285440000000     0.333130000000     0.955770000000     0.0386392  
H322     H      0.102520000000     0.163930000000     0.943660000000     0.0388519  
H323     H      0.753760000000     0.974410000000     0.664310000000     0.0387982  
H324     H      0.830330000000     0.014130000000     0.762420000000     0.0319085  
H325     H      0.763250000000     0.935270000000     0.837140000000     0.0380125  
H326     H      0.589850000000     0.967510000000     0.673420000000     0.0388303  
H327     H      0.877910000000     0.971450000000     0.797140000000     0.0413737  
H328     H      0.704560000000     0.936950000000     0.633310000000     0.0327596  
H329     H      0.635040000000     0.011310000000     0.710160000000     0.0317092  
H330     H      0.657710000000     0.954240000000     0.576290000000     0.0379334  
H331     H      0.811250000000     0.952280000000     0.894380000000     0.0328049  
H332     H      0.804720000000     0.970510000000     0.714960000000     0.0417465  
H333     H      0.881220000000     0.022050000000     0.815370000000     0.0347964  
H334     H      0.662920000000     0.969740000000     0.756720000000     0.0411149  
H335     H      0.808370000000     0.031250000000     0.808440000000     0.0373194  
H336     H      0.584150000000     0.018600000000     0.657170000000     0.0387231  
H337     H      0.699100000000     0.989880000000     0.622830000000     0.0358405  
H338     H      0.656590000000     0.030940000000     0.664980000000     0.0388506  
H339     H      0.713970000000     0.973790000000     0.807350000000     0.0388303  
H340     H      0.768860000000     0.987270000000     0.849530000000     0.0371546  
H341     H      0.638690000000     0.921570000000     0.614190000000     0.0336922  
H342     H      0.266960000000     0.035860000000     0.701760000000     0.0409749  
H343     H      0.127530000000     0.989970000000     0.752940000000     0.0336984  
H344     H      0.217770000000     0.988080000000     0.842190000000     0.0384573  
H345     H      0.306570000000     0.927450000000     0.601940000000     0.0383291  
H346     H      0.100190000000     0.029470000000     0.806550000000     0.0417769  
H347     H      0.340990000000     0.967930000000     0.718280000000     0.0345874  
H348     H      0.251340000000     0.965610000000     0.628560000000     0.0340605  
H349     H      0.393680000000     0.976590000000     0.665640000000     0.0396646  
H350     H      0.164340000000     0.981110000000     0.895590000000     0.0308669  
H351     H      0.215810000000     0.048240000000     0.753090000000     0.0451167  
H352     H      0.074720000000     0.982290000000     0.805950000000     0.0385247  
H353     H      0.252470000000     0.908570000000     0.718050000000     0.0439807  
H354     H      0.133780000000     0.946610000000     0.784510000000     0.0359553  
H355     H      0.303340000000     0.974000000000     0.575260000000     0.0382049  
H356     H      0.333650000000     0.011250000000     0.686840000000     0.0396118  
H357     H      0.281600000000     0.009880000000     0.634670000000     0.0384849  
H358     H      0.201180000000     0.920990000000     0.769310000000     0.0401427  
H359     H      0.184700000000     0.946390000000     0.836260000000     0.0381239  
H360     H      0.368530000000     0.929200000000     0.663790000000     0.0379033  
H361     H      0.265660000000     0.931000000000     0.270080000000     0.039898   
H362     H      0.125110000000     0.977780000000     0.220360000000     0.0343112  
H363     H      0.215860000000     0.977530000000     0.131500000000     0.0390562  
H364     H      0.304170000000     0.037050000000     0.371410000000     0.0378965  
H365     H      0.097990000000     0.938340000000     0.166460000000     0.040467   
H366     H      0.337990000000     0.001870000000     0.253420000000     0.0359556  
H367     H      0.249520000000     0.998430000000     0.344360000000     0.0340099  
H368     H      0.391580000000     0.992890000000     0.304900000000     0.0363887  
H369     H      0.163170000000     0.985000000000     0.077820000000     0.0309546  
H370     H      0.214210000000     0.918610000000     0.219160000000     0.0452268  
H371     H      0.072680000000     0.985630000000     0.167380000000     0.038019   
H372     H      0.249360000000     0.058340000000     0.255650000000     0.0438983  
H373     H      0.132040000000     0.020920000000     0.188540000000     0.0375281  
H374     H      0.302280000000     0.989590000000     0.396570000000     0.0366689  
H375     H      0.332340000000     0.957180000000     0.283320000000     0.0371239  
H376     H      0.280890000000     0.955210000000     0.336350000000     0.0367941  
H377     H      0.198060000000     0.045900000000     0.204500000000     0.0402844  
H378     H      0.183610000000     0.019980000000     0.136940000000     0.0398895  
H379     H      0.364920000000     0.039350000000     0.309100000000     0.0375202  
H380     H      0.713440000000     0.959580000000     0.167600000000     0.0385876  
H381     H      0.704980000000     0.006180000000     0.328580000000     0.0344836  
H382     H      0.635150000000     0.913150000000     0.276060000000     0.0354716  
H383     H      0.873690000000     0.994610000000     0.177500000000     0.0388763  
H384     H      0.670120000000     0.969360000000     0.381390000000     0.0398107  
H385     H      0.755260000000     0.008650000000     0.139380000000     0.0348171  
H386     H      0.836990000000     0.939810000000     0.208800000000     0.0317286  
H387     H      0.804250000000     0.004930000000     0.080920000000     0.0391557  
H388     H      0.574980000000     0.940790000000     0.317010000000     0.0366528  
H389     H      0.663380000000     0.952400000000     0.218580000000     0.0388687  
H390     H      0.652490000000     0.020180000000     0.377230000000     0.0337607  
H391     H      0.804200000000     0.972840000000     0.259080000000     0.0412966  
H392     H      0.659050000000     0.017570000000     0.303110000000     0.0406837  
H393     H      0.888130000000     0.947140000000     0.156490000000     0.0355116  
H394     H      0.613020000000     0.895060000000     0.355630000000     0.0270327  
H395     H      0.769430000000     0.958810000000     0.123750000000     0.036016   
H396     H      0.818960000000     0.921780000000     0.161480000000     0.0380169  
H397     H      0.754460000000     0.959040000000     0.310290000000     0.0417767  
H398     H      0.621010000000     0.964710000000     0.269690000000     0.036963   
H399     H      0.817290000000     0.037060000000     0.121670000000     0.0372457  
H400     H      0.059870000000     0.187470000000     0.750420000000     0.0410046  
H401     H      0.985530000000     0.252950000000     0.631260000000     0.0340813  
H402     H      0.050520000000     0.337280000000     0.700820000000     0.0359525  
H403     H      0.945320000000     0.112180000000     0.810520000000     0.0348661  
H404     H      0.022290000000     0.296660000000     0.585860000000     0.0397731  
H405     H      0.009470000000     0.220180000000     0.842790000000     0.033384   
H406     H      0.983000000000     0.134040000000     0.753400000000     0.0337498  
H407     H      0.011910000000     0.165730000000     0.894840000000     0.0411012  
H408     H      0.029690000000     0.392380000000     0.652570000000     0.0382489  
H409     H      0.070690000000     0.235290000000     0.695380000000     0.0435792  
H410     H      0.969470000000     0.305320000000     0.580780000000     0.0364913  
H411     H      0.945270000000     0.241220000000     0.774500000000     0.0440463  
H412     H      0.958350000000     0.294850000000     0.651810000000     0.0380835  
H413     H      0.987110000000     0.079160000000     0.805330000000     0.0390045  
H414     H      0.081040000000     0.353870000000     0.621980000000     0.0256724  
H415     H      0.044770000000     0.180990000000     0.831510000000     0.0375792  
H416     H      0.029710000000     0.131610000000     0.780230000000     0.038019   
H417     H      0.956930000000     0.290240000000     0.721240000000     0.0407835  
H418     H      0.997690000000     0.344850000000     0.695570000000     0.0382265  
H419     H      0.963250000000     0.174680000000     0.874160000000     0.037171   
H420     H      0.041460000000     0.699310000000     0.712040000000     0.0402257  
H421     H      0.989950000000     0.841440000000     0.754780000000     0.0338266  
H422     H      0.989030000000     0.753360000000     0.846450000000     0.0389942  
H423     H      0.937890000000     0.661560000000     0.607990000000     0.0417313  
H424     H      0.026840000000     0.871980000000     0.808400000000     0.0386791  
H425     H      0.972910000000     0.625170000000     0.725080000000     0.0340818  
H426     H      0.976340000000     0.715540000000     0.635920000000     0.0345404  
H427     H      0.984290000000     0.572590000000     0.671970000000     0.0377387  
H428     H      0.978720000000     0.807820000000     0.897950000000     0.033373   
H429     H      0.051050000000     0.752900000000     0.761540000000     0.0447931  
H430     H      0.978750000000     0.895480000000     0.806290000000     0.039388   
H431     H      0.913770000000     0.714120000000     0.720910000000     0.044766   
H432     H      0.946170000000     0.834510000000     0.785510000000     0.0380928  
H433     H      0.985200000000     0.663900000000     0.582760000000     0.0395481  
H434     H      0.017600000000     0.632270000000     0.695720000000     0.0372712  
H435     H      0.019330000000     0.683860000000     0.643780000000     0.0377878  
H436     H      0.923350000000     0.767540000000     0.770580000000     0.0414278  
H437     H      0.946480000000     0.784900000000     0.838600000000     0.0409462  
H438     H      0.936760000000     0.597290000000     0.669400000000     0.0388962  
H439     H      0.045720000000     0.772820000000     0.207630000000     0.0412834  
H440     H      0.996910000000     0.723580000000     0.349710000000     0.0343181  
H441     H      0.998980000000     0.635290000000     0.258260000000     0.0398806  
H442     H      0.938310000000     0.872500000000     0.166150000000     0.034667   
H443     H      0.035970000000     0.670070000000     0.377930000000     0.0393237  
H444     H      0.978350000000     0.755070000000     0.133230000000     0.0347992  
H445     H      0.976670000000     0.846450000000     0.221360000000     0.0336763  
H446     H      0.987580000000     0.807010000000     0.079260000000     0.0404967  
H447     H      0.991620000000     0.581430000000     0.310730000000     0.0312241  
H448     H      0.057420000000     0.723040000000     0.260560000000     0.0452127  
H449     H      0.988150000000     0.669890000000     0.402060000000     0.0360128  
H450     H      0.918560000000     0.757740000000     0.221780000000     0.043721   
H451     H      0.954200000000     0.691680000000     0.341840000000     0.0365976  
H452     H      0.985150000000     0.898450000000     0.167960000000     0.0389531  
H453     H      0.021560000000     0.786580000000     0.139960000000     0.0402921  
H454     H      0.020510000000     0.839500000000     0.190700000000     0.0392616  
H455     H      0.930290000000     0.707890000000     0.274700000000     0.0402862  
H456     H      0.956300000000     0.640260000000     0.290240000000     0.0406732  
H457     H      0.939890000000     0.808390000000     0.103750000000     0.0360511  
H458     H      0.039640000000     0.272040000000     0.268310000000     0.0400618  
H459     H      0.987430000000     0.133750000000     0.219150000000     0.0337755  
H460     H      0.994730000000     0.222110000000     0.128020000000     0.0396515  
H461     H      0.929420000000     0.316640000000     0.363400000000     0.0380859  
H462     H      0.026800000000     0.102780000000     0.167440000000     0.0389     
H463     H      0.977590000000     0.349930000000     0.249900000000     0.0341647  
H464     H      0.965430000000     0.259400000000     0.338170000000     0.0338631  
H465     H      0.987510000000     0.401460000000     0.303930000000     0.0377247  
H466     H      0.985550000000     0.168140000000     0.075700000000     0.0319155  
H467     H      0.050900000000     0.218880000000     0.218740000000     0.0448119  
H468     H      0.978230000000     0.080180000000     0.167040000000     0.0392305  
H469     H      0.912660000000     0.264060000000     0.247860000000     0.0439755  
H470     H      0.945780000000     0.142040000000     0.185870000000     0.0376432  
H471     H      0.974080000000     0.310040000000     0.392390000000     0.0381465  
H472     H      0.018750000000     0.339450000000     0.283200000000     0.0374814  
H473     H      0.011570000000     0.287130000000     0.334640000000     0.0377391  
H474     H      0.923930000000     0.210760000000     0.198400000000     0.0410392  
H475     H      0.950730000000     0.192040000000     0.133120000000     0.041138   
H476     H      0.938490000000     0.379750000000     0.302750000000     0.0380976  
N1       N      0.470130000000     0.122480000000     0.359620000000    -0.171104   
N2       N      0.465010000000     0.183790000000     0.301430000000    -0.110938   
N3       N      0.497700000000     0.301080000000     0.181870000000    -0.113928   
N4       N      0.493480000000     0.359100000000     0.120580000000    -0.166932   
N5       N      0.508810000000     0.868900000000     0.343630000000    -0.16998    
N6       N      0.513450000000     0.809360000000     0.283970000000    -0.113095   
N7       N      0.478460000000     0.681010000000     0.176680000000    -0.113855   
N8       N      0.479340000000     0.620560000000     0.117280000000    -0.166414   
N9       N      0.477630000000     0.849090000000     0.608940000000    -0.170459   
N10      N      0.469680000000     0.788300000000     0.667370000000    -0.110852   
N11      N      0.492570000000     0.673130000000     0.791380000000    -0.113791   
N12      N      0.485010000000     0.615900000000     0.853140000000    -0.16661    
N13      N      0.473650000000     0.111530000000     0.621880000000    -0.169455   
N14      N      0.468790000000     0.170060000000     0.683280000000    -0.110763   
N15      N      0.497460000000     0.292170000000     0.799770000000    -0.113633   
N16      N      0.491440000000     0.353640000000     0.858010000000    -0.166214   
N17      N      0.847610000000     0.360560000000     0.485750000000    -0.170135   
N18      N      0.786360000000     0.302940000000     0.492580000000    -0.110772   
N19      N      0.666010000000     0.183530000000     0.474660000000    -0.113793   
N20      N      0.608800000000     0.122220000000     0.484540000000    -0.166682   
N21      N      0.858620000000     0.623100000000     0.492530000000    -0.169509   
N22      N      0.800520000000     0.684670000000     0.494660000000    -0.110747   
N23      N      0.681840000000     0.803620000000     0.463860000000    -0.113787   
N24      N      0.619630000000     0.860780000000     0.470540000000    -0.166368   
N25      N      0.346600000000     0.110550000000     0.495750000000    -0.169784   
N26      N      0.284290000000     0.167370000000     0.501290000000    -0.110769   
N27      N      0.165830000000     0.287060000000     0.474750000000    -0.113863   
N28      N      0.108930000000     0.349080000000     0.481230000000    -0.166698   
N29      N      0.121200000000     0.610650000000     0.503600000000    -0.169964   
N30      N      0.183180000000     0.668370000000     0.505940000000    -0.11073    
N31      N      0.300600000000     0.786720000000     0.469220000000    -0.113858   
N32      N      0.358180000000     0.848650000000     0.471820000000    -0.166394   
N33      N      0.858090000000     0.502360000000     0.352940000000    -0.170218   
N34      N      0.799520000000     0.509170000000     0.291970000000    -0.11088    
N35      N      0.678270000000     0.481880000000     0.174750000000    -0.113767   
N36      N      0.617300000000     0.487310000000     0.116340000000    -0.166268   
N37      N      0.120380000000     0.493270000000     0.363270000000    -0.169606   
N38      N      0.181520000000     0.499590000000     0.305010000000    -0.110734   
N39      N      0.297990000000     0.474580000000     0.182650000000    -0.113504   
N40      N      0.355620000000     0.481190000000     0.121090000000    -0.165855   
N41      N      0.103310000000     0.462900000000     0.628710000000    -0.16929    
N42      N      0.163050000000     0.461070000000     0.688110000000    -0.112979   
N43      N      0.290940000000     0.492020000000     0.797130000000    -0.113504   
N44      N      0.351100000000     0.488810000000     0.856870000000    -0.16603    
N45      N      0.848620000000     0.480800000000     0.615020000000    -0.170614   
N46      N      0.787150000000     0.477030000000     0.672560000000    -0.110818   
N47      N      0.670010000000     0.504480000000     0.793120000000    -0.113878   
N48      N      0.612020000000     0.496900000000     0.853890000000    -0.167338   
N49      N      0.850540000000     0.859490000000     0.976660000000    -0.170196   
N50      N      0.789550000000     0.801060000000     0.970360000000    -0.110264   
N51      N      0.670130000000     0.682490000000     0.998830000000    -0.113965   
N52      N      0.611530000000     0.621830000000     0.992970000000    -0.166202   
N53      N      0.855800000000     0.121700000000     0.994310000000    -0.172526   
N54      N      0.797110000000     0.182410000000     0.000030000000    -0.108348   
N55      N      0.677880000000     0.300980000000     0.971360000000    -0.113202   
N56      N      0.617260000000     0.359520000000     0.977700000000    -0.166926   
N57      N      0.111770000000     0.853790000000     0.992950000000    -0.170458   
N58      N      0.170240000000     0.793010000000     0.997520000000    -0.110741   
N59      N      0.288620000000     0.673380000000     0.970240000000    -0.113154   
N60      N      0.349570000000     0.615320000000     0.977630000000    -0.1671     
N61      N      0.355890000000     0.353770000000     0.998120000000    -0.172697   
N62      N      0.297610000000     0.292880000000     0.004010000000    -0.108322   
N63      N      0.177960000000     0.174560000000     0.977240000000    -0.113028   
N64      N      0.117310000000     0.116280000000     0.982750000000    -0.166258   
N65      N      0.854340000000     0.979740000000     0.855490000000    -0.171491   
N66      N      0.796600000000     0.969750000000     0.794570000000    -0.110632   
N67      N      0.671010000000     0.969580000000     0.676840000000    -0.113235   
N68      N      0.613370000000     0.979340000000     0.615740000000    -0.167998   
N69      N      0.115350000000     0.991760000000     0.855310000000    -0.169419   
N70      N      0.174990000000     0.994430000000     0.795120000000    -0.110952   
N71      N      0.293520000000     0.962460000000     0.676180000000    -0.113099   
N72      N      0.353040000000     0.967980000000     0.616100000000    -0.166124   
N73      N      0.113680000000     0.976410000000     0.118130000000    -0.170997   
N74      N      0.172650000000     0.972450000000     0.178330000000    -0.110425   
N75      N      0.291070000000     0.004390000000     0.296430000000    -0.111262   
N76      N      0.351230000000     0.998000000000     0.355160000000    -0.169675   
N77      N      0.612570000000     0.975040000000     0.355740000000    -0.171283   
N78      N      0.675420000000     0.955540000000     0.301930000000    -0.111143   
N79      N      0.794320000000     0.978090000000     0.179620000000    -0.112185   
N80      N      0.852690000000     0.984950000000     0.118420000000    -0.167363   
N81      N      0.002400000000     0.351520000000     0.611020000000    -0.168938   
N82      N      0.020160000000     0.291300000000     0.668680000000    -0.11216    
N83      N      0.991560000000     0.180560000000     0.796170000000    -0.115069   
N84      N      0.989270000000     0.120040000000     0.855380000000    -0.165447   
N85      N      0.988850000000     0.856270000000     0.856650000000    -0.170487   
N86      N      0.995110000000     0.795330000000     0.798520000000    -0.111023   
N87      N      0.969740000000     0.672770000000     0.682780000000    -0.113152   
N88      N      0.976430000000     0.613790000000     0.622870000000    -0.167129   
N89      N      0.999300000000     0.621260000000     0.360940000000    -0.171599   
N90      N      0.003220000000     0.682010000000     0.301780000000    -0.108253   
N91      N      0.972840000000     0.798180000000     0.179910000000    -0.113228   
N92      N      0.977590000000     0.856900000000     0.118950000000    -0.166126   
N93      N      0.991620000000     0.119270000000     0.117320000000    -0.171321   
N94      N      0.996450000000     0.179910000000     0.176090000000    -0.110838   
N95      N      0.967090000000     0.302460000000     0.291150000000    -0.113302   
N96      N      0.973400000000     0.360730000000     0.352070000000    -0.167623   
O1       O      0.987950000000     0.100880000000     0.051570000000    -0.377626   
O2       O      0.980290000000     0.874120000000     0.052450000000    -0.37558    
O3       O      0.918290000000     0.984990000000     0.100190000000    -0.37836    
O4       O      0.048090000000     0.982740000000     0.100340000000    -0.377715   
O5       O      0.096520000000     0.982740000000     0.052110000000    -0.376967   
O6       O      0.869800000000     0.990360000000     0.052190000000    -0.374518   
O7       O      0.981730000000     0.922690000000     0.100610000000    -0.374869   
O8       O      0.985480000000     0.053020000000     0.100450000000    -0.379178   
O9       O      0.023340000000     0.946670000000     0.027480000000    -0.50569    
O10      O      0.944080000000     0.029250000000     0.027380000000    -0.506533   
O11      O      0.942050000000     0.947870000000     0.027470000000    -0.653452   
O12      O      0.025050000000     0.027370000000     0.027440000000    -0.647868   
O13      O      0.984020000000     0.874930000000     0.922150000000    -0.379002   
O14      O      0.988490000000     0.101790000000     0.921530000000    -0.376247   
O15      O      0.869160000000     0.925010000000     0.984170000000    -0.375077   
O16      O      0.095740000000     0.920240000000     0.988000000000    -0.377485   
O17      O      0.098410000000     0.050590000000     0.986130000000    -0.377191   
O18      O      0.871830000000     0.055330000000     0.988400000000    -0.380327   
O19      O      0.919310000000     0.989120000000     0.872920000000    -0.381141   
O20      O      0.049270000000     0.989470000000     0.872980000000    -0.375198   
O21      O      0.871350000000     0.983430000000     0.921490000000    -0.37623    
O22      O      0.097390000000     0.987440000000     0.921480000000    -0.375872   
O23      O      0.916640000000     0.875960000000     0.982450000000    -0.376374   
O24      O      0.921210000000     0.102520000000     0.989320000000    -0.377987   
O25      O      0.051090000000     0.099830000000     0.985240000000    -0.374377   
O26      O      0.046350000000     0.873130000000     0.989800000000    -0.37539    
O27      O      0.984720000000     0.922770000000     0.873190000000    -0.377197   
O28      O      0.985750000000     0.053770000000     0.872860000000    -0.374512   
O29      O      0.025280000000     0.027580000000     0.946200000000    -0.507525   
O30      O      0.943210000000     0.948740000000     0.946470000000    -0.505571   
O31      O      0.943710000000     0.029550000000     0.945780000000    -0.648619   
O32      O      0.023600000000     0.946560000000     0.946110000000    -0.64936    
O33      O      0.977100000000     0.376130000000     0.418580000000    -0.381288   
O34      O      0.993390000000     0.602160000000     0.426790000000    -0.378265   
O35      O      0.923290000000     0.495180000000     0.372660000000    -0.374068   
O36      O      0.053800000000     0.489690000000     0.378310000000    -0.375557   
O37      O      0.100150000000     0.486650000000     0.428570000000    -0.373281   
O38      O      0.873390000000     0.494980000000     0.419380000000    -0.378886   
O39      O      0.992940000000     0.555070000000     0.377170000000    -0.376312   
O40      O      0.982470000000     0.425740000000     0.371840000000    -0.380297   
O41      O      0.027970000000     0.525540000000     0.451530000000    -0.504028   
O42      O      0.943110000000     0.449130000000     0.444560000000    -0.509429   
O43      O      0.946980000000     0.530100000000     0.447870000000    -0.651369   
O44      O      0.024620000000     0.445520000000     0.447760000000    -0.646701   
O45      O      0.983330000000     0.597640000000     0.556790000000    -0.378496   
O46      O      0.983920000000     0.370280000000     0.548160000000    -0.37911    
O47      O      0.873850000000     0.556360000000     0.489020000000    -0.375332   
O48      O      0.100650000000     0.545460000000     0.498630000000    -0.379069   
O49      O      0.094440000000     0.415630000000     0.487710000000    -0.377792   
O50      O      0.868030000000     0.425990000000     0.482960000000    -0.375055   
O51      O      0.915020000000     0.481210000000     0.599440000000    -0.384953   
O52      O      0.042130000000     0.480970000000     0.606190000000    -0.379761   
O53      O      0.868580000000     0.488040000000     0.549770000000    -0.376288   
O54      O      0.091600000000     0.468310000000     0.560710000000    -0.365841   
O55      O      0.924040000000     0.602720000000     0.490430000000    -0.372751   
O56      O      0.914230000000     0.375690000000     0.484540000000    -0.379825   
O57      O      0.043860000000     0.369920000000     0.483370000000    -0.375555   
O58      O      0.054720000000     0.596070000000     0.496470000000    -0.376266   
O59      O      0.979280000000     0.548070000000     0.603750000000    -0.378162   
O60      O      0.991090000000     0.417460000000     0.597270000000    -0.370441   
O61      O      0.020210000000     0.443030000000     0.528480000000    -0.510051   
O62      O      0.943970000000     0.527540000000     0.528460000000    -0.509268   
O63      O      0.940240000000     0.445820000000     0.526250000000    -0.652071   
O64      O      0.025060000000     0.524030000000     0.532370000000    -0.647926   
O65      O      0.595600000000     0.990070000000     0.419850000000    -0.378729   
O66      O      0.369290000000     0.988880000000     0.420510000000    -0.380227   
O67      O      0.486840000000     0.929080000000     0.366100000000    -0.379865   
O68      O      0.479410000000     0.056350000000     0.374380000000    -0.384392   
O69      O      0.474900000000     0.102180000000     0.424970000000    -0.376722   
O70      O      0.500310000000     0.879510000000     0.411290000000    -0.366585   
O71      O      0.417120000000     0.992160000000     0.371890000000    -0.380362   
O72      O      0.547030000000     0.982070000000     0.372260000000    -0.372842   
O73      O      0.440620000000     0.026440000000     0.446790000000    -0.509527   
O74      O      0.524120000000     0.950270000000     0.442870000000    -0.512472   
O75      O      0.443540000000     0.944870000000     0.441190000000    -0.648753   
O76      O      0.521940000000     0.030280000000     0.445690000000    -0.649402   
O77      O      0.370280000000     0.974520000000     0.550000000000    -0.377642   
O78      O      0.596080000000     0.982560000000     0.549830000000    -0.383282   
O79      O      0.423440000000     0.868940000000     0.474710000000    -0.381408   
O80      O      0.413190000000     0.095880000000     0.491200000000    -0.372565   
O81      O      0.543540000000     0.102090000000     0.488180000000    -0.378415   
O82      O      0.553110000000     0.874990000000     0.477140000000    -0.375592   
O83      O      0.482340000000     0.915610000000     0.593970000000    -0.377717   
O84      O      0.479040000000     0.046140000000     0.601400000000    -0.373797   
O85      O      0.484410000000     0.869230000000     0.543580000000    -0.37587    
O86      O      0.478030000000     0.096490000000     0.555100000000    -0.377324   
O87      O      0.373210000000     0.915080000000     0.479220000000    -0.378115   
O88      O      0.598900000000     0.925690000000     0.478180000000    -0.371825   
O89      O      0.593540000000     0.055550000000     0.486740000000    -0.380068   
O90      O      0.367070000000     0.045440000000     0.489630000000    -0.374639   
O91      O      0.418560000000     0.976140000000     0.598330000000    -0.375046   
O92      O      0.547920000000     0.985240000000     0.598400000000    -0.380958   
O93      O      0.522300000000     0.026740000000     0.527610000000    -0.509191   
O94      O      0.445380000000     0.941780000000     0.522540000000    -0.506773   
O95      O      0.524970000000     0.944680000000     0.523200000000    -0.645917   
O96      O      0.440900000000     0.022600000000     0.527010000000    -0.652025   
O97      O      0.421360000000     0.372660000000     0.992350000000    -0.379532   
O98      O      0.415840000000     0.599420000000     0.982160000000    -0.37794    
O99      O      0.371580000000     0.484950000000     0.054370000000    -0.374381   
O100     O      0.369490000000     0.486900000000     0.923060000000    -0.374431   
O101     O      0.417140000000     0.485340000000     0.874050000000    -0.378745   
O102     O      0.420940000000     0.485390000000     0.101680000000    -0.377317   
O103     O      0.368740000000     0.550040000000     0.985110000000    -0.377919   
O104     O      0.372100000000     0.419970000000     0.991740000000    -0.378736   
O105     O      0.442010000000     0.526380000000     0.946650000000    -0.506943   
O106     O      0.445130000000     0.447150000000     0.028680000000    -0.505934   
O107     O      0.442640000000     0.528010000000     0.027900000000    -0.648565   
O108     O      0.443070000000     0.444990000000     0.947430000000    -0.65065    
O109     O      0.545980000000     0.602840000000     0.988550000000    -0.376862   
O110     O      0.551240000000     0.375730000000     0.984260000000    -0.376178   
O111     O      0.484630000000     0.554560000000     0.099970000000    -0.378648   
O112     O      0.481710000000     0.550510000000     0.872690000000    -0.376698   
O113     O      0.486490000000     0.420160000000     0.874360000000    -0.376777   
O114     O      0.488130000000     0.424530000000     0.101540000000    -0.377574   
O115     O      0.598280000000     0.489050000000     0.050510000000    -0.378007   
O116     O      0.595810000000     0.492190000000     0.920250000000    -0.379709   
O117     O      0.550940000000     0.489900000000     0.099810000000    -0.375793   
O118     O      0.546820000000     0.489750000000     0.872660000000    -0.3777     
O119     O      0.479310000000     0.602190000000     0.051100000000    -0.376994   
O120     O      0.489170000000     0.375250000000     0.054060000000    -0.377482   
O121     O      0.486990000000     0.372760000000     0.923700000000    -0.377682   
O122     O      0.482460000000     0.600080000000     0.919930000000    -0.376532   
O123     O      0.595220000000     0.555500000000     0.988490000000    -0.377378   
O124     O      0.598340000000     0.425160000000     0.982460000000    -0.377358   
O125     O      0.524530000000     0.447360000000     0.946610000000    -0.507928   
O126     O      0.523970000000     0.530020000000     0.026500000000    -0.5067     
O127     O      0.525870000000     0.448490000000     0.027560000000    -0.651757   
O128     O      0.522350000000     0.528390000000     0.945620000000    -0.650507   
S1       S      0.415360000000     0.170740000000     0.380210000000    -0.0153469  
S2       S      0.426320000000     0.798860000000     0.584480000000    -0.0152902  
S3       S      0.422080000000     0.088950000000     0.672730000000    -0.0194463  
S4       S      0.797810000000     0.383270000000     0.538220000000    -0.0190928  
S5       S      0.878460000000     0.674460000000     0.544750000000    -0.0169875  
S6       S      0.362560000000     0.159490000000     0.551560000000    -0.0202829  
S7       S      0.171640000000     0.589980000000     0.556400000000    -0.0226837  
S8       S      0.880660000000     0.555220000000     0.303300000000    -0.0225196  
S9       S      0.170750000000     0.544740000000     0.387070000000    -0.0140058  
S10      S      0.861580000000     0.421800000000     0.661050000000    -0.0200368  
S11      S      0.868900000000     0.810860000000     0.921250000000    -0.0128969  
S12      S      0.876860000000     0.171090000000     0.048070000000    -0.0153687  
S13      S      0.092220000000     0.805330000000     0.048110000000    -0.0118307  
S14      S      0.306200000000     0.372010000000     0.052430000000    -0.0160379  
S15      S      0.836510000000     0.906160000000     0.853890000000    -0.0106004  
S16      S      0.166980000000     0.043960000000     0.874070000000    -0.0139297  
S17      S      0.163740000000     0.922390000000     0.100230000000    -0.0140637  
S18      S      0.042160000000     0.806830000000     0.878470000000    -0.0198601  
S19      S      0.053820000000     0.604460000000     0.310990000000    -0.015244   
S20      S      0.047730000000     0.166860000000     0.098800000000    -0.021155   
Zr1      Zr     0.983400000000     0.987670000000     0.067550000000     1.42422    
Zr2      Zr     0.982220000000     0.907390000000     0.987110000000     1.42845    
Zr3      Zr     0.985480000000     0.068310000000     0.986550000000     1.42296    
Zr4      Zr     0.903210000000     0.989480000000     0.986860000000     1.4198     
Zr5      Zr     0.064330000000     0.986130000000     0.986750000000     1.42535    
Zr6      Zr     0.984130000000     0.988350000000     0.905810000000     1.42158    
Zr7      Zr     0.987140000000     0.489170000000     0.407810000000     1.42412    
Zr8      Zr     0.987910000000     0.567000000000     0.490940000000     1.42314    
Zr9      Zr     0.980420000000     0.405970000000     0.484890000000     1.42984    
Zr10     Zr     0.903640000000     0.489800000000     0.485620000000     1.4247     
Zr11     Zr     0.064890000000     0.482100000000     0.492560000000     1.42055    
Zr12     Zr     0.980730000000     0.483980000000     0.568690000000     1.43241    
Zr13     Zr     0.482170000000     0.990120000000     0.404360000000     1.43452    
Zr14     Zr     0.402610000000     0.981820000000     0.484800000000     1.42613    
Zr15     Zr     0.563280000000     0.989230000000     0.485030000000     1.42697    
Zr16     Zr     0.486740000000     0.904900000000     0.479590000000     1.42131    
Zr17     Zr     0.479830000000     0.066470000000     0.488560000000     1.42525    
Zr18     Zr     0.483220000000     0.982480000000     0.565170000000     1.42382    
Zr19     Zr     0.403150000000     0.485830000000     0.988220000000     1.42085    
Zr20     Zr     0.481670000000     0.568470000000     0.986060000000     1.42178    
Zr21     Zr     0.485530000000     0.406930000000     0.988230000000     1.42429    
Zr22     Zr     0.485280000000     0.489030000000     0.067760000000     1.42668    
Zr23     Zr     0.482470000000     0.485940000000     0.906420000000     1.42672    
Zr24     Zr     0.564160000000     0.489550000000     0.985950000000     1.42692    


