data_structure

_audit_creation_method RASPA-1.0
_audit_creation_date 2023-5-25
_audit_author_name 'Poobodin Mano'

_cell_length_a    33.4373
_cell_length_b    33.4014
_cell_length_c    33.4292
_cell_angle_alpha 90
_cell_angle_beta  90
_cell_angle_gamma 90
_cell_volume      37335.5

_symmetry_cell_setting          triclinic
_symmetry_space_group_name_Hall 'P 1'
_symmetry_space_group_name_H-M  'P 1'
_symmetry_Int_Tables_number     1

_symmetry_equiv_pos_as_xyz 'x,y,z'

loop_
_atom_site_label
_atom_site_type_symbol
_atom_site_fract_x
_atom_site_fract_y
_atom_site_fract_z
_atom_site_charge
C1       C      0.987290000000     0.095950000000     0.080450000000     0.388982   
C2       C      0.989910000000     0.891880000000     0.095810000000     0.38865    
C3       C      0.883260000000     0.994650000000     0.086830000000     0.390801   
C4       C      0.087560000000     0.997980000000     0.088940000000     0.388697   
C5       C      0.992080000000     0.876970000000     0.891830000000     0.390296   
C6       C      0.984740000000     0.081010000000     0.876960000000     0.389522   
C7       C      0.886740000000     0.881820000000     0.988340000000     0.39096    
C8       C      0.090810000000     0.886950000000     0.997130000000     0.390483   
C9       C      0.086380000000     0.090290000000     0.975330000000     0.392399   
C10      C      0.882640000000     0.086240000000     0.984020000000     0.391974   
C11      C      0.885450000000     0.980150000000     0.883340000000     0.390297   
C12      C      0.089990000000     0.979150000000     0.885450000000     0.389473   
C13      C      0.984960000000     0.392260000000     0.376500000000     0.387386   
C14      C      0.983890000000     0.596220000000     0.392420000000     0.389792   
C15      C      0.884010000000     0.494430000000     0.384200000000     0.390781   
C16      C      0.088450000000     0.492800000000     0.384910000000     0.390896   
C17      C      0.981590000000     0.580420000000     0.596240000000     0.38824    
C18      C      0.990200000000     0.376700000000     0.580550000000     0.390356   
C19      C      0.882800000000     0.587050000000     0.495400000000     0.390805   
C20      C      0.087210000000     0.588670000000     0.497090000000     0.392231   
C21      C      0.088780000000     0.385010000000     0.478630000000     0.390077   
C22      C      0.884500000000     0.383730000000     0.475230000000     0.392938   
C23      C      0.883280000000     0.474570000000     0.587480000000     0.392356   
C24      C      0.087510000000     0.476110000000     0.588340000000     0.391437   
C25      C      0.586170000000     0.982350000000     0.381120000000     0.393028   
C26      C      0.382270000000     0.987240000000     0.385610000000     0.39085    
C27      C      0.482440000000     0.885070000000     0.381790000000     0.390956   
C28      C      0.480690000000     0.089410000000     0.385420000000     0.392687   
C29      C      0.386770000000     0.985980000000     0.590170000000     0.391744   
C30      C      0.590760000000     0.980040000000     0.585320000000     0.389455   
C31      C      0.383080000000     0.884460000000     0.485900000000     0.389459   
C32      C      0.385360000000     0.088930000000     0.490810000000     0.38817    
C33      C      0.589590000000     0.086950000000     0.486950000000     0.38992    
C34      C      0.587320000000     0.882610000000     0.476790000000     0.391173   
C35      C      0.489650000000     0.881350000000     0.585640000000     0.391893   
C36      C      0.493370000000     0.085450000000     0.589580000000     0.391862   
C37      C      0.381020000000     0.386470000000     0.992390000000     0.391485   
C38      C      0.386390000000     0.590750000000     0.984050000000     0.389636   
C39      C      0.385530000000     0.492370000000     0.089450000000     0.390198   
C40      C      0.382240000000     0.490710000000     0.885140000000     0.390314   
C41      C      0.590330000000     0.585380000000     0.988640000000     0.393346   
C42      C      0.585030000000     0.381090000000     0.979740000000     0.391114   
C43      C      0.494710000000     0.588790000000     0.086430000000     0.391531   
C44      C      0.483340000000     0.586410000000     0.882260000000     0.393957   
C45      C      0.479340000000     0.382380000000     0.884520000000     0.390147   
C46      C      0.486500000000     0.384320000000     0.088440000000     0.39249    
C47      C      0.589700000000     0.483220000000     0.086070000000     0.387125   
C48      C      0.586440000000     0.484670000000     0.881900000000     0.390453   
C49      C      0.477740000000     0.284870000000     0.138880000000    -0.0322412  
C50      C      0.485190000000     0.189970000000     0.337230000000    -0.030053   
C51      C      0.467310000000     0.107450000000     0.315100000000    -0.00746481 
C52      C      0.470490000000     0.160860000000     0.369320000000    -0.00742391 
C53      C      0.442740000000     0.228140000000     0.250560000000    -0.0549731  
C54      C      0.520230000000     0.247810000000     0.225940000000    -0.0547906  
C55      C      0.475540000000     0.208880000000     0.268120000000     0.060908   
C56      C      0.482270000000     0.139050000000     0.285690000000    -0.0298825  
C57      C      0.487430000000     0.266940000000     0.208280000000     0.0601717  
C58      C      0.481210000000     0.336610000000     0.189430000000    -0.0585446  
C59      C      0.448500000000     0.257000000000     0.220870000000    -0.0566626  
C60      C      0.497290000000     0.367730000000     0.159670000000     0.081318   
C61      C      0.493230000000     0.312950000000     0.106270000000    -0.0051577  
C62      C      0.514480000000     0.218990000000     0.255640000000    -0.0572362  
C63      C      0.542380000000     0.374220000000     0.165560000000    -0.18457    
C64      C      0.491230000000     0.785770000000     0.331470000000    -0.0323015  
C65      C      0.491240000000     0.689370000000     0.134070000000    -0.0302326  
C66      C      0.507620000000     0.606760000000     0.157010000000    -0.00741761 
C67      C      0.506860000000     0.659960000000     0.102700000000    -0.00730921 
C68      C      0.530420000000     0.728320000000     0.221700000000    -0.0551124  
C69      C      0.452140000000     0.748270000000     0.243350000000    -0.0546696  
C70      C      0.498280000000     0.708660000000     0.203380000000     0.0606843  
C71      C      0.492000000000     0.638600000000     0.185920000000    -0.0301885  
C72      C      0.484270000000     0.767810000000     0.261790000000     0.0598121  
C73      C      0.490080000000     0.837610000000     0.280880000000    -0.0583926  
C74      C      0.523620000000     0.757700000000     0.250680000000    -0.0566286  
C75      C      0.473190000000     0.868850000000     0.310160000000     0.0805864  
C76      C      0.474570000000     0.813910000000     0.363440000000    -0.00537141 
C77      C      0.458930000000     0.718930000000     0.214360000000    -0.0572455  
C78      C      0.428400000000     0.875770000000     0.302680000000    -0.184083   
C79      C      0.489360000000     0.633860000000     0.781470000000    -0.0325284  
C80      C      0.485250000000     0.831050000000     0.685110000000    -0.0298192  
C81      C      0.499340000000     0.809890000000     0.601650000000    -0.00733441 
C82      C      0.500430000000     0.863090000000     0.656300000000    -0.0071621  
C83      C      0.525670000000     0.743290000000     0.721250000000    -0.055068   
C84      C      0.448070000000     0.721040000000     0.743140000000    -0.0547312  
C85      C      0.492890000000     0.761420000000     0.702530000000     0.0610666  
C86      C      0.484290000000     0.780450000000     0.633230000000    -0.029801   
C87      C      0.480850000000     0.702950000000     0.761870000000     0.0602104  
C88      C      0.488130000000     0.685970000000     0.831840000000    -0.0593876  
C89      C      0.519840000000     0.714280000000     0.750750000000    -0.0565937  
C90      C      0.472360000000     0.657300000000     0.864110000000     0.082814   
C91      C      0.473920000000     0.602410000000     0.810830000000    -0.00481105 
C92      C      0.453890000000     0.750090000000     0.713690000000    -0.0572969  
C93      C      0.427470000000     0.663880000000     0.871290000000    -0.186266   
C94      C      0.485420000000     0.133260000000     0.690020000000    -0.0324654  
C95      C      0.486310000000     0.331910000000     0.785280000000    -0.0298895  
C96      C      0.468040000000     0.311160000000     0.868000000000    -0.00749905 
C97      C      0.470180000000     0.364210000000     0.813420000000    -0.00752302 
C98      C      0.447010000000     0.243700000000     0.747830000000    -0.0550433  
C99      C      0.525380000000     0.220940000000     0.729520000000    -0.0545708  
C100     C      0.479010000000     0.262090000000     0.767660000000     0.0607257  
C101     C      0.484310000000     0.281430000000     0.837270000000    -0.0298497  
C102     C      0.493380000000     0.202580000000     0.709670000000     0.0598277  
C103     C      0.489100000000     0.185160000000     0.639530000000    -0.0591741  
C104     C      0.453990000000     0.214190000000     0.719020000000    -0.0565222  
C105     C      0.505810000000     0.156120000000     0.608010000000     0.0822927  
C106     C      0.501710000000     0.101520000000     0.661310000000    -0.00550026 
C107     C      0.518400000000     0.250470000000     0.758300000000    -0.0572102  
C108     C      0.551030000000     0.162020000000     0.602640000000    -0.18578    
C109     C      0.785110000000     0.333870000000     0.481080000000    -0.0325012  
C110     C      0.690030000000     0.135300000000     0.478050000000    -0.0299534  
C111     C      0.607620000000     0.158130000000     0.495280000000    -0.00717257 
C112     C      0.661140000000     0.103740000000     0.494330000000    -0.00776009 
C113     C      0.728370000000     0.222930000000     0.517590000000    -0.0552479  
C114     C      0.747600000000     0.246110000000     0.439540000000    -0.0547796  
C115     C      0.708850000000     0.204840000000     0.485240000000     0.0607466  
C116     C      0.639090000000     0.186730000000     0.478600000000    -0.0302498  
C117     C      0.766910000000     0.264410000000     0.471910000000     0.0598716  
C118     C      0.836650000000     0.283040000000     0.476780000000    -0.0591805  
C119     C      0.757250000000     0.252440000000     0.511120000000    -0.0566574  
C120     C      0.867650000000     0.313030000000     0.460830000000     0.0824956  
C121     C      0.813260000000     0.366430000000     0.465580000000    -0.00528288 
C122     C      0.718810000000     0.216500000000     0.446010000000    -0.0572783  
C123     C      0.873320000000     0.308210000000     0.415520000000    -0.186076   
C124     C      0.782740000000     0.635100000000     0.485770000000    -0.0323556  
C125     C      0.686700000000     0.833030000000     0.481840000000    -0.0302562  
C126     C      0.603990000000     0.811470000000     0.464630000000    -0.00753286 
C127     C      0.658170000000     0.864730000000     0.465240000000    -0.00732752 
C128     C      0.724950000000     0.744400000000     0.444780000000    -0.0552167  
C129     C      0.743050000000     0.723410000000     0.523710000000    -0.0545871  
C130     C      0.704740000000     0.763210000000     0.476300000000     0.060659   
C131     C      0.634970000000     0.782140000000     0.481200000000    -0.0301488  
C132     C      0.763230000000     0.704570000000     0.492190000000     0.0597075  
C133     C      0.833380000000     0.686860000000     0.488670000000    -0.0591094  
C134     C      0.754010000000     0.715330000000     0.452510000000    -0.0565859  
C135     C      0.864670000000     0.658090000000     0.506290000000     0.0820027  
C136     C      0.811120000000     0.603640000000     0.503070000000    -0.00571274 
C137     C      0.714050000000     0.752520000000     0.515980000000    -0.0572318  
C138     C      0.869960000000     0.665180000000     0.551350000000    -0.185861   
C139     C      0.138900000000     0.285300000000     0.484270000000    -0.0323098  
C140     C      0.337410000000     0.189850000000     0.484790000000    -0.0299182  
C141     C      0.314200000000     0.106980000000     0.499390000000    -0.00735171 
C142     C      0.368610000000     0.160330000000     0.500710000000    -0.00778955 
C143     C      0.248520000000     0.227100000000     0.523510000000    -0.0551149  
C144     C      0.228160000000     0.249400000000     0.445500000000    -0.0546224  
C145     C      0.267790000000     0.208780000000     0.491100000000     0.0605063  
C146     C      0.285870000000     0.139020000000     0.483190000000    -0.0300445  
C147     C      0.208800000000     0.267610000000     0.477900000000     0.0596295  
C148     C      0.189480000000     0.337140000000     0.485570000000    -0.058302   
C149     C      0.219270000000     0.256300000000     0.517110000000    -0.0566     
C150     C      0.160420000000     0.368900000000     0.469310000000     0.08033    
C151     C      0.107120000000     0.314090000000     0.468200000000    -0.00555326 
C152     C      0.257430000000     0.220210000000     0.451900000000    -0.0572454  
C153     C      0.168310000000     0.377060000000     0.424800000000    -0.183836   
C154     C      0.135610000000     0.688940000000     0.495730000000    -0.0322221  
C155     C      0.333590000000     0.784380000000     0.493280000000    -0.0299091  
C156     C      0.311350000000     0.867850000000     0.480490000000    -0.00717924 
C157     C      0.364810000000     0.813470000000     0.476810000000    -0.00741288 
C158     C      0.243890000000     0.748840000000     0.455980000000    -0.0551641  
C159     C      0.224960000000     0.725380000000     0.534020000000    -0.0546734  
C160     C      0.263670000000     0.766690000000     0.488300000000     0.0607537  
C161     C      0.282990000000     0.836010000000     0.497000000000    -0.0300154  
C162     C      0.205190000000     0.707520000000     0.501690000000     0.0597905  
C163     C      0.187100000000     0.637930000000     0.493250000000    -0.0584645  
C164     C      0.214880000000     0.719470000000     0.462470000000    -0.0566093  
C165     C      0.158440000000     0.605310000000     0.508430000000     0.08085    
C166     C      0.104400000000     0.659260000000     0.511110000000    -0.00520892 
C167     C      0.254010000000     0.754750000000     0.527520000000    -0.0573743  
C168     C      0.166190000000     0.595760000000     0.552720000000    -0.183883   
C169     C      0.784740000000     0.487100000000     0.333580000000    -0.0323028  
C170     C      0.690330000000     0.492750000000     0.134250000000    -0.029822   
C171     C      0.607990000000     0.475270000000     0.157180000000    -0.00777359 
C172     C      0.661400000000     0.476480000000     0.102670000000    -0.00848918 
C173     C      0.728690000000     0.452450000000     0.221670000000    -0.0551007  
C174     C      0.747670000000     0.530250000000     0.246020000000    -0.0547609  
C175     C      0.709300000000     0.485040000000     0.203800000000     0.0605185  
C176     C      0.639510000000     0.491960000000     0.185700000000    -0.0298783  
C177     C      0.766770000000     0.497630000000     0.264180000000     0.0596603  
C178     C      0.836450000000     0.493030000000     0.283200000000    -0.0584833  
C179     C      0.757300000000     0.458560000000     0.251530000000    -0.0566487  
C180     C      0.867120000000     0.508850000000     0.313590000000     0.0808123  
C181     C      0.812580000000     0.502180000000     0.366660000000    -0.00545349 
C182     C      0.719200000000     0.524150000000     0.216000000000    -0.0573749  
C183     C      0.872360000000     0.554340000000     0.309500000000    -0.184022   
C184     C      0.188780000000     0.502250000000     0.336000000000    -0.0324561  
C185     C      0.285740000000     0.490640000000     0.139490000000    -0.029845   
C186     C      0.369360000000     0.503720000000     0.160630000000    -0.00756658 
C187     C      0.314970000000     0.504470000000     0.107210000000    -0.00739486 
C188     C      0.249420000000     0.534160000000     0.225550000000    -0.055031   
C189     C      0.226570000000     0.457530000000     0.250300000000    -0.0547281  
C190     C      0.267990000000     0.500540000000     0.208730000000     0.0607612  
C191     C      0.337300000000     0.490150000000     0.190310000000    -0.0298175  
C192     C      0.208080000000     0.491140000000     0.267170000000     0.0598697  
C193     C      0.138170000000     0.499480000000     0.284500000000    -0.0580375  
C194     C      0.219640000000     0.529640000000     0.254530000000    -0.0566987  
C195     C      0.106040000000     0.484100000000     0.313630000000     0.0800958  
C196     C      0.159990000000     0.487170000000     0.368090000000    -0.00483842 
C197     C      0.256260000000     0.462040000000     0.221260000000    -0.0573892  
C198     C      0.098150000000     0.439220000000     0.306990000000    -0.183363   
C199     C      0.135800000000     0.479800000000     0.688530000000    -0.0324191  
C200     C      0.332930000000     0.484890000000     0.785360000000    -0.0301082  
C201     C      0.310850000000     0.500390000000     0.868310000000    -0.00756606 
C202     C      0.364310000000     0.501430000000     0.814220000000    -0.00746416 
C203     C      0.243690000000     0.522080000000     0.748040000000    -0.0552469  
C204     C      0.224800000000     0.443390000000     0.726620000000    -0.0545508  
C205     C      0.263190000000     0.490220000000     0.767080000000     0.0606231  
C206     C      0.281940000000     0.483930000000     0.836840000000    -0.0300872  
C207     C      0.205400000000     0.475250000000     0.707490000000     0.0594595  
C208     C      0.187330000000     0.482440000000     0.637640000000    -0.0589607  
C209     C      0.214990000000     0.514800000000     0.718520000000    -0.0564617  
C210     C      0.158980000000     0.466220000000     0.605190000000     0.0815715  
C211     C      0.104950000000     0.463260000000     0.659090000000    -0.00552007 
C212     C      0.253440000000     0.450660000000     0.756200000000    -0.0573204  
C213     C      0.167650000000     0.421940000000     0.596240000000    -0.185098   
C214     C      0.783040000000     0.478510000000     0.635340000000    -0.0322723  
C215     C      0.685990000000     0.476120000000     0.832030000000    -0.0298192  
C216     C      0.603060000000     0.492410000000     0.810370000000    -0.0074169  
C217     C      0.657520000000     0.492410000000     0.863820000000    -0.00730613 
C218     C      0.723830000000     0.515620000000     0.744680000000    -0.0550775  
C219     C      0.743830000000     0.437500000000     0.722200000000    -0.0546802  
C220     C      0.704100000000     0.483240000000     0.762510000000     0.0608912  
C221     C      0.634430000000     0.476310000000     0.781230000000    -0.0298615  
C222     C      0.763530000000     0.469890000000     0.704350000000     0.0598173  
C223     C      0.833610000000     0.475620000000     0.687220000000    -0.0584508  
C224     C      0.753350000000     0.509150000000     0.715850000000    -0.0565261  
C225     C      0.865610000000     0.460230000000     0.657960000000     0.0808674  
C226     C      0.812070000000     0.463140000000     0.603590000000    -0.00512665 
C227     C      0.714360000000     0.443970000000     0.751110000000    -0.0574028  
C228     C      0.872740000000     0.415120000000     0.663450000000    -0.183959   
C229     C      0.642060000000     0.684320000000     0.984980000000    -0.0334608  
C230     C      0.839290000000     0.780600000000     0.996740000000    -0.031934   
C231     C      0.816330000000     0.862660000000     0.977590000000    -0.00701066 
C232     C      0.871330000000     0.809850000000     0.982190000000    -0.00699713 
C233     C      0.754130000000     0.741070000000     0.952180000000    -0.0550185  
C234     C      0.728120000000     0.720690000000     0.029030000000    -0.0527026  
C235     C      0.770710000000     0.760460000000     0.985420000000     0.0591727  
C236     C      0.787220000000     0.830650000000     0.992440000000    -0.0318653  
C237     C      0.711400000000     0.701430000000     0.995770000000     0.0569581  
C238     C      0.692040000000     0.631950000000     0.987820000000    -0.0625428  
C239     C      0.724700000000     0.711790000000     0.957160000000    -0.0558552  
C240     C      0.661500000000     0.600610000000     0.002150000000     0.0868998  
C241     C      0.608960000000     0.656120000000     0.999120000000    -0.00652305 
C242     C      0.757530000000     0.749990000000     0.024040000000    -0.0559976  
C243     C      0.666300000000     0.592350000000     0.047130000000    -0.187099   
C244     C      0.781360000000     0.133300000000     0.978920000000    -0.0319011  
C245     C      0.684370000000     0.330430000000     0.981930000000    -0.0319422  
C246     C      0.600600000000     0.309450000000     0.969750000000    -0.00709772 
C247     C      0.655310000000     0.362390000000     0.966970000000    -0.00709851 
C248     C      0.719570000000     0.241940000000     0.941860000000    -0.0549033  
C249     C      0.743510000000     0.221080000000     0.019260000000    -0.053183   
C250     C      0.701590000000     0.260600000000     0.974790000000     0.058977   
C251     C      0.632410000000     0.279990000000     0.984450000000    -0.0320493  
C252     C      0.761600000000     0.202530000000     0.986330000000     0.0582286  
C253     C      0.831420000000     0.185560000000     0.977070000000    -0.058623   
C254     C      0.749350000000     0.213110000000     0.947440000000    -0.0565059  
C255     C      0.864450000000     0.157500000000     0.992500000000     0.0804577  
C256     C      0.811330000000     0.102320000000     0.994230000000    -0.00741869 
C257     C      0.713740000000     0.249890000000     0.013680000000    -0.0556621  
C258     C      0.873690000000     0.165850000000     0.036770000000    -0.183627   
C259     C      0.191600000000     0.839770000000     0.990920000000    -0.037709   
C260     C      0.287080000000     0.641500000000     0.991370000000    -0.0320623  
C261     C      0.370510000000     0.662660000000     0.977240000000    -0.00668907 
C262     C      0.315620000000     0.609710000000     0.974990000000    -0.00707912 
C263     C      0.251210000000     0.730360000000     0.953310000000    -0.0553022  
C264     C      0.230170000000     0.751700000000     0.031400000000    -0.0527022  
C265     C      0.270040000000     0.711550000000     0.985660000000     0.0592591  
C266     C      0.339250000000     0.691620000000     0.993780000000    -0.0323156  
C267     C      0.211390000000     0.770540000000     0.999040000000     0.056722   
C268     C      0.141330000000     0.787600000000     0.993290000000    -0.0644246  
C269     C      0.222040000000     0.759580000000     0.959790000000    -0.0559496  
C270     C      0.109350000000     0.816330000000     0.009580000000     0.0864099  
C271     C      0.162440000000     0.871280000000     0.006770000000    -0.00114501 
C272     C      0.259250000000     0.722360000000     0.024910000000    -0.0561155  
C273     C      0.103070000000     0.810050000000     0.054630000000    -0.18751    
C274     C      0.184840000000     0.141400000000     0.981800000000    -0.0345159  
C275     C      0.280250000000     0.339640000000     0.985100000000    -0.0336182  
C276     C      0.362010000000     0.315890000000     0.003980000000    -0.00262    
C277     C      0.309350000000     0.370730000000     0.001940000000    -0.00274136 
C278     C      0.240020000000     0.251580000000     0.022670000000    -0.0531206  
C279     C      0.222280000000     0.230200000000     0.943760000000    -0.0546484  
C280     C      0.260340000000     0.270270000000     0.991140000000     0.0579675  
C281     C      0.330530000000     0.287390000000     0.987000000000    -0.033612   
C282     C      0.202170000000     0.211320000000     0.975290000000     0.0581629  
C283     C      0.132560000000     0.191620000000     0.979260000000    -0.0610732  
C284     C      0.211130000000     0.222350000000     0.014950000000    -0.0551874  
C285     C      0.101900000000     0.161650000000     0.962490000000     0.0822593  
C286     C      0.157210000000     0.109030000000     0.965060000000    -0.00496513 
C287     C      0.251140000000     0.259470000000     0.951470000000    -0.0566188  
C288     C      0.095450000000     0.168040000000     0.917440000000    -0.185297   
C289     C      0.785900000000     0.972050000000     0.832420000000    -0.031905   
C290     C      0.691580000000     0.983630000000     0.633610000000    -0.0318305  
C291     C      0.608720000000     0.967820000000     0.655810000000    -0.00707711 
C292     C      0.662120000000     0.969840000000     0.601410000000    -0.00713604 
C293     C      0.728430000000     0.939340000000     0.720200000000    -0.0547284  
C294     C      0.750500000000     0.016080000000     0.745300000000    -0.0531532  
C295     C      0.710340000000     0.972870000000     0.702700000000     0.059078   
C296     C      0.640790000000     0.981870000000     0.685160000000    -0.0317031  
C297     C      0.768450000000     0.982560000000     0.762910000000     0.0583386  
C298     C      0.837800000000     0.974040000000     0.782100000000    -0.0580552  
C299     C      0.757300000000     0.944010000000     0.750070000000    -0.0564195  
C300     C      0.869210000000     0.989520000000     0.811870000000     0.0791164  
C301     C      0.814270000000     0.986770000000     0.865180000000    -0.00705371 
C302     C      0.721660000000     0.011430000000     0.715430000000    -0.0557391  
C303     C      0.876740000000     0.034490000000     0.805670000000    -0.181948   
C304     C      0.339150000000     0.977320000000     0.691060000000    -0.0317827  
C305     C      0.140610000000     0.982100000000     0.786050000000    -0.0318616  
C306     C      0.161340000000     0.968550000000     0.869680000000    -0.00702716 
C307     C      0.108450000000     0.967070000000     0.814920000000    -0.00703152 
C308     C      0.228850000000     0.941900000000     0.750540000000    -0.0547426  
C309     C      0.251610000000     0.019560000000     0.729170000000    -0.0531712  
C310     C      0.210440000000     0.974710000000     0.769030000000     0.0589896  
C311     C      0.190890000000     0.983520000000     0.838190000000    -0.0318416  
C312     C      0.270060000000     0.986760000000     0.710740000000     0.0584222  
C313     C      0.287230000000     0.980530000000     0.640740000000    -0.0582551  
C314     C      0.258370000000     0.947730000000     0.721530000000    -0.0565467  
C315     C      0.316070000000     0.996730000000     0.608840000000     0.0797665  
C316     C      0.370960000000     0.992800000000     0.662020000000    -0.00717195 
C317     C      0.221990000000     0.013740000000     0.758060000000    -0.0556718  
C318     C      0.309900000000     0.041870000000     0.602560000000    -0.182742   
C319     C      0.331720000000     0.998110000000     0.286600000000    -0.0345466  
C320     C      0.134950000000     0.995710000000     0.189550000000    -0.0350452  
C321     C      0.158170000000     0.010650000000     0.106810000000    -0.00336585 
C322     C      0.103740000000     0.011040000000     0.159880000000    -0.00304306 
C323     C      0.221920000000     0.035370000000     0.228610000000    -0.0564989  
C324     C      0.244250000000     0.957310000000     0.248980000000    -0.0531661  
C325     C      0.204120000000     0.002920000000     0.208930000000     0.0633542  
C326     C      0.186920000000     0.995480000000     0.138980000000    -0.0349097  
C327     C      0.262270000000     0.989750000000     0.268410000000     0.0573209  
C328     C      0.281130000000     0.995300000000     0.338250000000    -0.0603462  
C329     C      0.250760000000     0.028980000000     0.258190000000    -0.0537272  
C330     C      0.310640000000     0.978430000000     0.369290000000     0.0810997  
C331     C      0.363890000000     0.981400000000     0.314380000000    -0.00414286 
C332     C      0.215340000000     0.963680000000     0.219510000000    -0.06002    
C333     C      0.303630000000     0.933440000000     0.375760000000    -0.184211   
C334     C      0.685210000000     0.988380000000     0.330540000000    -0.0345258  
C335     C      0.782610000000     0.988210000000     0.133900000000    -0.0336371  
C336     C      0.864310000000     0.008030000000     0.157090000000    -0.00215635 
C337     C      0.811630000000     0.004260000000     0.102420000000    -0.00250179 
C338     C      0.742180000000     0.028190000000     0.220780000000    -0.0530461  
C339     C      0.723390000000     0.949700000000     0.243030000000    -0.0547861  
C340     C      0.762510000000     0.996190000000     0.202900000000     0.0577194  
C341     C      0.832820000000     0.991810000000     0.186070000000    -0.0355304  
C342     C      0.703090000000     0.981710000000     0.260920000000     0.0582253  
C343     C      0.633340000000     0.987670000000     0.279960000000    -0.0610436  
C344     C      0.712740000000     0.021160000000     0.249600000000    -0.0552481  
C345     C      0.601890000000     0.971590000000     0.309510000000     0.0825594  
C346     C      0.656910000000     0.972100000000     0.362520000000    -0.00453396 
C347     C      0.752900000000     0.956740000000     0.214270000000    -0.0565061  
C348     C      0.593970000000     0.926820000000     0.302460000000    -0.185667   
C349     C      0.996750000000     0.124940000000     0.774730000000    -0.0343908  
C350     C      0.985490000000     0.321470000000     0.677420000000    -0.0333829  
C351     C      0.001570000000     0.304710000000     0.593320000000    -0.00318297 
C352     C      0.000160000000     0.355270000000     0.650420000000    -0.00298052 
C353     C      0.028330000000     0.235280000000     0.712360000000    -0.0532196  
C354     C      0.951330000000     0.208560000000     0.731080000000    -0.0549797  
C355     C      0.995360000000     0.251560000000     0.692240000000     0.0578186  
C356     C      0.987200000000     0.273270000000     0.623390000000    -0.0334353  
C357     C      0.984260000000     0.192520000000     0.751400000000     0.058216   
C358     C      0.988100000000     0.178720000000     0.822350000000    -0.0598086  
C359     C      0.022960000000     0.206040000000     0.741790000000    -0.0555144  
C360     C      0.971890000000     0.150420000000     0.854790000000     0.0799497  
C361     C      0.981220000000     0.093570000000     0.804210000000    -0.0049142  
C362     C      0.956680000000     0.237900000000     0.701780000000    -0.0567409  
C363     C      0.926330000000     0.154780000000     0.859060000000    -0.183009   
C364     C      0.987210000000     0.821260000000     0.795240000000    -0.03562    
C365     C      0.990010000000     0.622980000000     0.699480000000    -0.0319068  
C366     C      0.971230000000     0.650120000000     0.618720000000    -0.00704431 
C367     C      0.974050000000     0.592780000000     0.668850000000    -0.00764536 
C368     C      0.949550000000     0.709580000000     0.741710000000    -0.054967   
C369     C      0.027460000000     0.732350000000     0.761820000000    -0.0528148  
C370     C      0.981960000000     0.691530000000     0.722230000000     0.0589511  
C371     C      0.987890000000     0.677200000000     0.651540000000    -0.0320218  
C372     C      0.995020000000     0.750860000000     0.780850000000     0.0569466  
C373     C      0.987970000000     0.773350000000     0.849570000000    -0.0617425  
C374     C      0.955870000000     0.738980000000     0.770800000000    -0.055924   
C375     C      0.003430000000     0.804670000000     0.879660000000     0.0851134  
C376     C      0.002630000000     0.854950000000     0.822080000000    -0.000632787
C377     C      0.021130000000     0.702910000000     0.732750000000    -0.0559206  
C378     C      0.048160000000     0.798500000000     0.888270000000    -0.185467   
C379     C      0.990970000000     0.652530000000     0.296200000000    -0.0342948  
C380     C      0.982370000000     0.849650000000     0.199330000000    -0.0298055  
C381     C      0.000210000000     0.822250000000     0.118410000000    -0.00308287 
C382     C      0.997510000000     0.879860000000     0.168360000000    -0.00949482 
C383     C      0.024840000000     0.764720000000     0.242040000000    -0.0536483  
C384     C      0.947670000000     0.739940000000     0.262620000000    -0.0545495  
C385     C      0.991850000000     0.781500000000     0.222390000000     0.0590171  
C386     C      0.984470000000     0.795200000000     0.151700000000    -0.0323093  
C387     C      0.980690000000     0.722570000000     0.281680000000     0.0579149  
C388     C      0.987900000000     0.700260000000     0.350500000000    -0.0599276  
C389     C      0.019450000000     0.735530000000     0.271510000000    -0.0551253  
C390     C      0.972700000000     0.668530000000     0.380320000000     0.0804794  
C391     C      0.975700000000     0.618440000000     0.322500000000    -0.00453262 
C392     C      0.953050000000     0.769230000000     0.233240000000    -0.0572502  
C393     C      0.927780000000     0.673930000000     0.388450000000    -0.183698   
C394     C      0.984050000000     0.152090000000     0.177140000000    -0.0317108  
C395     C      0.992690000000     0.350240000000     0.272600000000    -0.0319007  
C396     C      0.977780000000     0.322330000000     0.353990000000    -0.00702511 
C397     C      0.977890000000     0.380240000000     0.303950000000    -0.00793767 
C398     C      0.949830000000     0.263990000000     0.232140000000    -0.0548393  
C399     C      0.026500000000     0.240920000000     0.208020000000    -0.0533935  
C400     C      0.983310000000     0.281870000000     0.249890000000     0.0587897  
C401     C      0.993170000000     0.295810000000     0.320170000000    -0.0320725  
C402     C      0.993020000000     0.222490000000     0.190810000000     0.0581931  
C403     C      0.982540000000     0.199710000000     0.122660000000    -0.0580711  
C404     C      0.954500000000     0.234570000000     0.202790000000    -0.0565869  
C405     C      0.997050000000     0.168450000000     0.092090000000     0.0790142  
C406     C      0.998330000000     0.118230000000     0.149920000000    -0.00755359 
C407     C      0.021830000000     0.270410000000     0.237320000000    -0.05576    
C408     C      0.041350000000     0.175100000000     0.081700000000    -0.182223   
H1       H      0.929620000000     0.931830000000     0.047250000000     0.206668   
H2       H      0.042320000000     0.048850000000     0.039120000000     0.209749   
H3       H      0.928730000000     0.038470000000     0.924950000000     0.207481   
H4       H      0.045580000000     0.926370000000     0.934330000000     0.20929    
H5       H      0.928400000000     0.547200000000     0.433840000000     0.207975   
H6       H      0.043450000000     0.433810000000     0.425210000000     0.207912   
H7       H      0.929040000000     0.423660000000     0.538750000000     0.207619   
H8       H      0.042230000000     0.539250000000     0.548540000000     0.207814   
H9       H      0.427420000000     0.929990000000     0.428840000000     0.208867   
H10      H      0.543210000000     0.043630000000     0.427560000000     0.206567   
H11      H      0.544500000000     0.926450000000     0.539820000000     0.210151   
H12      H      0.431530000000     0.042440000000     0.545220000000     0.20834    
H13      H      0.431300000000     0.545610000000     0.043220000000     0.208894   
H14      H      0.425610000000     0.429520000000     0.929990000000     0.208163   
H15      H      0.542680000000     0.427390000000     0.041970000000     0.208046   
H16      H      0.543580000000     0.541640000000     0.926920000000     0.208062   
H17      H      0.540320000000     0.204530000000     0.268720000000     0.0392445  
H18      H      0.486840000000     0.253760000000     0.131140000000     0.0334509  
H19      H      0.491940000000     0.344020000000     0.220110000000     0.0398954  
H20      H      0.434390000000     0.104280000000     0.311540000000     0.0381215  
H21      H      0.525350000000     0.306270000000     0.100790000000     0.0338057  
H22      H      0.475420000000     0.220700000000     0.345640000000     0.0329136  
H23      H      0.470390000000     0.131670000000     0.255460000000     0.0332154  
H24      H      0.486530000000     0.167690000000     0.397650000000     0.0374677  
H25      H      0.482140000000     0.396570000000     0.166680000000     0.0191508  
H26      H      0.550320000000     0.255270000000     0.216560000000     0.0418359  
H27      H      0.476750000000     0.306210000000     0.078170000000     0.038272   
H28      H      0.412650000000     0.220620000000     0.259870000000     0.0433163  
H29      H      0.444440000000     0.286050000000     0.139490000000     0.0366911  
H30      H      0.481090000000     0.078300000000     0.306860000000     0.0380718  
H31      H      0.518500000000     0.189520000000     0.336480000000     0.0353496  
H32      H      0.515540000000     0.137860000000     0.284330000000     0.0355651  
H33      H      0.422690000000     0.271460000000     0.207730000000     0.0397201  
H34      H      0.447930000000     0.338250000000     0.189920000000     0.0422728  
H35      H      0.438100000000     0.166260000000     0.374600000000     0.038025   
H36      H      0.548540000000     0.385670000000     0.196150000000     0.0609477  
H37      H      0.553500000000     0.396590000000     0.143680000000     0.0706476  
H38      H      0.559150000000     0.345870000000     0.161020000000     0.0711712  
H39      H      0.433560000000     0.704240000000     0.200630000000     0.0394301  
H40      H      0.481630000000     0.754710000000     0.338810000000     0.033238   
H41      H      0.480510000000     0.845130000000     0.249850000000     0.0392523  
H42      H      0.540430000000     0.603520000000     0.161420000000     0.0371483  
H43      H      0.442150000000     0.807620000000     0.367370000000     0.03314    
H44      H      0.501590000000     0.719960000000     0.125860000000     0.0329818  
H45      H      0.502920000000     0.631250000000     0.216510000000     0.0330607  
H46      H      0.492290000000     0.667100000000     0.073670000000     0.0380834  
H47      H      0.488850000000     0.897560000000     0.303780000000     0.0170472  
H48      H      0.421730000000     0.755780000000     0.251620000000     0.0417518  
H49      H      0.489620000000     0.806770000000     0.392230000000     0.0379918  
H50      H      0.560830000000     0.720750000000     0.213510000000     0.0428981  
H51      H      0.524520000000     0.786760000000     0.332220000000     0.0360895  
H52      H      0.493520000000     0.577680000000     0.164960000000     0.0377953  
H53      H      0.457930000000     0.689200000000     0.133580000000     0.0358376  
H54      H      0.458700000000     0.637620000000     0.186280000000     0.0357993  
H55      H      0.548950000000     0.772380000000     0.264500000000     0.039047   
H56      H      0.523370000000     0.839030000000     0.281580000000     0.0399278  
H57      H      0.539560000000     0.664760000000     0.098930000000     0.0367094  
H58      H      0.423440000000     0.887320000000     0.271910000000     0.0604396  
H59      H      0.416710000000     0.898230000000     0.324180000000     0.0698737  
H60      H      0.411220000000     0.847570000000     0.306550000000     0.0704065  
H61      H      0.428060000000     0.763770000000     0.699770000000     0.039609   
H62      H      0.479290000000     0.625430000000     0.750860000000     0.0333063  
H63      H      0.478040000000     0.717020000000     0.838640000000     0.0400801  
H64      H      0.531870000000     0.804790000000     0.596940000000     0.0356205  
H65      H      0.441470000000     0.597630000000     0.805350000000     0.035572   
H66      H      0.496250000000     0.838430000000     0.715670000000     0.032994   
H67      H      0.494630000000     0.749880000000     0.624910000000     0.0330977  
H68      H      0.485770000000     0.891910000000     0.664210000000     0.0385934  
H69      H      0.488160000000     0.664940000000     0.892400000000     0.0175637  
H70      H      0.417930000000     0.712630000000     0.751520000000     0.0420395  
H71      H      0.489440000000     0.573700000000     0.804270000000     0.0371249  
H72      H      0.555810000000     0.751840000000     0.713010000000     0.0432999  
H73      H      0.522680000000     0.633760000000     0.781810000000     0.0357493  
H74      H      0.483900000000     0.803100000000     0.572980000000     0.0384278  
H75      H      0.451940000000     0.831670000000     0.685650000000     0.0365213  
H76      H      0.450980000000     0.780490000000     0.633230000000     0.0364053  
H77      H      0.545650000000     0.700790000000     0.764900000000     0.0394278  
H78      H      0.521440000000     0.685960000000     0.832680000000     0.0414818  
H79      H      0.533150000000     0.866960000000     0.660870000000     0.0354711  
H80      H      0.421930000000     0.694710000000     0.882430000000     0.061729   
H81      H      0.416470000000     0.642360000000     0.894070000000     0.0768358  
H82      H      0.410130000000     0.659220000000     0.843330000000     0.0731144  
H83      H      0.543660000000     0.264250000000     0.773140000000     0.0397862  
H84      H      0.494280000000     0.124870000000     0.721010000000     0.0333966  
H85      H      0.499820000000     0.216050000000     0.632960000000     0.0400469  
H86      H      0.435210000000     0.306620000000     0.870870000000     0.0353263  
H87      H      0.533940000000     0.096660000000     0.667900000000     0.035828   
H88      H      0.476730000000     0.339330000000     0.754260000000     0.0329831  
H89      H      0.473260000000     0.251000000000     0.845180000000     0.0331137  
H90      H      0.485330000000     0.392920000000     0.806070000000     0.0385674  
H91      H      0.491320000000     0.163960000000     0.579080000000     0.0180426  
H92      H      0.555820000000     0.212380000000     0.722520000000     0.0419805  
H93      H      0.485880000000     0.072900000000     0.667470000000     0.0372928  
H94      H      0.416570000000     0.252380000000     0.754700000000     0.0429613  
H95      H      0.452150000000     0.133400000000     0.688450000000     0.0355089  
H96      H      0.481720000000     0.304060000000     0.897480000000     0.0386244  
H97      H      0.519610000000     0.332220000000     0.786190000000     0.0367458  
H98      H      0.517590000000     0.281110000000     0.838900000000     0.0366945  
H99      H      0.428750000000     0.200580000000     0.704000000000     0.0391793  
H100     H      0.455850000000     0.185520000000     0.637320000000     0.041306   
H101     H      0.437700000000     0.368260000000     0.807500000000     0.0353197  
H102     H      0.557460000000     0.192700000000     0.591530000000     0.0615054  
H103     H      0.562640000000     0.140190000000     0.580460000000     0.0759006  
H104     H      0.567150000000     0.157340000000     0.631320000000     0.0727068  
H105     H      0.704230000000     0.202860000000     0.420510000000     0.0392142  
H106     H      0.754030000000     0.341810000000     0.472150000000     0.0331016  
H107     H      0.843900000000     0.252500000000     0.465490000000     0.0399124  
H108     H      0.604710000000     0.163750000000     0.527880000000     0.0335424  
H109     H      0.806870000000     0.371660000000     0.433350000000     0.0352746  
H110     H      0.720810000000     0.127430000000     0.488040000000     0.0329085  
H111     H      0.631700000000     0.217600000000     0.488790000000     0.0324422  
H112     H      0.667720000000     0.074820000000     0.479210000000     0.0376978  
H113     H      0.896660000000     0.305480000000     0.475310000000     0.017521   
H114     H      0.754880000000     0.254930000000     0.409230000000     0.0417892  
H115     H      0.806320000000     0.394660000000     0.481790000000     0.037146   
H116     H      0.721040000000     0.214170000000     0.547900000000     0.042694   
H117     H      0.786490000000     0.333210000000     0.514360000000     0.0353067  
H118     H      0.578410000000     0.165430000000     0.481150000000     0.0367201  
H119     H      0.689470000000     0.134630000000     0.444730000000     0.0353108  
H120     H      0.637890000000     0.186230000000     0.445310000000     0.0353785  
H121     H      0.771920000000     0.265950000000     0.536620000000     0.0388748  
H122     H      0.838670000000     0.282060000000     0.510040000000     0.0410714  
H123     H      0.667080000000     0.099560000000     0.526800000000     0.0371694  
H124     H      0.885330000000     0.278000000000     0.408500000000     0.0613956  
H125     H      0.894900000000     0.330900000000     0.404510000000     0.075715   
H126     H      0.844600000000     0.312420000000     0.399360000000     0.0725913  
H127     H      0.698990000000     0.766680000000     0.540890000000     0.0396986  
H128     H      0.751630000000     0.627040000000     0.494510000000     0.0332267  
H129     H      0.839980000000     0.717980000000     0.498700000000     0.0393364  
H130     H      0.601230000000     0.806640000000     0.431830000000     0.0370021  
H131     H      0.804190000000     0.599600000000     0.535350000000     0.0353443  
H132     H      0.717560000000     0.840460000000     0.471790000000     0.0328309  
H133     H      0.627170000000     0.751500000000     0.470650000000     0.0331164  
H134     H      0.665740000000     0.893910000000     0.479340000000     0.037909   
H135     H      0.893680000000     0.665380000000     0.491660000000     0.015759   
H136     H      0.749930000000     0.715500000000     0.554360000000     0.0420496  
H137     H      0.804890000000     0.574670000000     0.487910000000     0.0371389  
H138     H      0.718170000000     0.752390000000     0.414120000000     0.0427299  
H139     H      0.784650000000     0.634480000000     0.452510000000     0.0348545  
H140     H      0.574560000000     0.804280000000     0.478330000000     0.0379902  
H141     H      0.686080000000     0.834100000000     0.515140000000     0.0360072  
H142     H      0.633480000000     0.782340000000     0.514480000000     0.0359682  
H143     H      0.769280000000     0.701310000000     0.427640000000     0.0385015  
H144     H      0.835830000000     0.686440000000     0.455430000000     0.0391751  
H145     H      0.663430000000     0.867740000000     0.432530000000     0.036602   
H146     H      0.880790000000     0.696100000000     0.557030000000     0.0611586  
H147     H      0.892370000000     0.643890000000     0.563460000000     0.0755604  
H148     H      0.841320000000     0.660620000000     0.567560000000     0.0725801  
H149     H      0.271850000000     0.206510000000     0.426350000000     0.0397305  
H150     H      0.131680000000     0.254610000000     0.473450000000     0.03324    
H151     H      0.220610000000     0.345000000000     0.476650000000     0.0392832  
H152     H      0.308290000000     0.103260000000     0.531880000000     0.0319105  
H153     H      0.103620000000     0.308980000000     0.435520000000     0.0332814  
H154     H      0.345210000000     0.220330000000     0.495780000000     0.0327843  
H155     H      0.254900000000     0.131420000000     0.492790000000     0.0327112  
H156     H      0.397770000000     0.167350000000     0.486340000000     0.0384999  
H157     H      0.166740000000     0.397140000000     0.485830000000     0.0175126  
H158     H      0.220440000000     0.257850000000     0.415200000000     0.0417177  
H159     H      0.078120000000     0.306480000000     0.482610000000     0.0379966  
H160     H      0.256180000000     0.218580000000     0.553810000000     0.0426109  
H161     H      0.137670000000     0.285080000000     0.517570000000     0.0361767  
H162     H      0.306950000000     0.078110000000     0.484480000000     0.0381888  
H163     H      0.338650000000     0.190240000000     0.451490000000     0.0364676  
H164     H      0.286770000000     0.138700000000     0.449880000000     0.0368172  
H165     H      0.204800000000     0.269960000000     0.542650000000     0.0390437  
H166     H      0.188330000000     0.337480000000     0.518890000000     0.0400848  
H167     H      0.372170000000     0.165210000000     0.533420000000     0.0346311  
H168     H      0.198950000000     0.389200000000     0.420500000000     0.0603642  
H169     H      0.146570000000     0.399430000000     0.413420000000     0.0690672  
H170     H      0.165080000000     0.349260000000     0.406850000000     0.0701854  
H171     H      0.268920000000     0.768060000000     0.552990000000     0.0395698  
H172     H      0.127910000000     0.719220000000     0.507330000000     0.0331621  
H173     H      0.218290000000     0.630330000000     0.502210000000     0.0397544  
H174     H      0.304390000000     0.872460000000     0.448320000000     0.0317837  
H175     H      0.101210000000     0.663170000000     0.543990000000     0.0331167  
H176     H      0.340550000000     0.753880000000     0.481760000000     0.0328651  
H177     H      0.251890000000     0.844230000000     0.488390000000     0.0324386  
H178     H      0.394200000000     0.805850000000     0.490390000000     0.0385123  
H179     H      0.165330000000     0.577710000000     0.491100000000     0.0191629  
H180     H      0.217840000000     0.716410000000     0.564330000000     0.0417254  
H181     H      0.075160000000     0.667010000000     0.497300000000     0.0381868  
H182     H      0.251080000000     0.757730000000     0.425670000000     0.0426546  
H183     H      0.134250000000     0.689950000000     0.462450000000     0.0368597  
H184     H      0.305250000000     0.896500000000     0.496290000000     0.0377555  
H185     H      0.335700000000     0.783610000000     0.526530000000     0.0364084  
H186     H      0.284830000000     0.835780000000     0.530270000000     0.0364122  
H187     H      0.200110000000     0.706080000000     0.436960000000     0.0394199  
H188     H      0.186200000000     0.638330000000     0.459940000000     0.0422698  
H189     H      0.367500000000     0.808780000000     0.443970000000     0.0342857  
H190     H      0.197430000000     0.585300000000     0.557000000000     0.0603715  
H191     H      0.145810000000     0.571550000000     0.562920000000     0.0695059  
H192     H      0.161140000000     0.622590000000     0.571700000000     0.0703413  
H193     H      0.704740000000     0.549820000000     0.202550000000     0.0391155  
H194     H      0.753520000000     0.495500000000     0.341550000000     0.0330767  
H195     H      0.843720000000     0.504930000000     0.252920000000     0.0396842  
H196     H      0.605100000000     0.442630000000     0.162820000000     0.0318759  
H197     H      0.805590000000     0.534140000000     0.372810000000     0.0328723  
H198     H      0.721130000000     0.482880000000     0.126320000000     0.0322247  
H199     H      0.632190000000     0.481730000000     0.216550000000     0.0324393  
H200     H      0.667750000000     0.491860000000     0.073860000000     0.0362159  
H201     H      0.896310000000     0.494780000000     0.305970000000     0.0191746  
H202     H      0.754860000000     0.560470000000     0.255270000000     0.0414702  
H203     H      0.805920000000     0.485030000000     0.394380000000     0.0378675  
H204     H      0.721430000000     0.422220000000     0.212500000000     0.0426997  
H205     H      0.786480000000     0.453830000000     0.332190000000     0.0362893  
H206     H      0.578790000000     0.489390000000     0.164540000000     0.037568   
H207     H      0.689690000000     0.526100000000     0.133730000000     0.033942   
H208     H      0.638290000000     0.525290000000     0.185250000000     0.0357465  
H209     H      0.771860000000     0.432860000000     0.264810000000     0.0393634  
H210     H      0.838840000000     0.459790000000     0.281650000000     0.0421364  
H211     H      0.667540000000     0.444060000000     0.098240000000     0.0353877  
H212     H      0.884020000000     0.561980000000     0.279330000000     0.060319   
H213     H      0.894060000000     0.565240000000     0.332140000000     0.06918    
H214     H      0.843520000000     0.570150000000     0.314240000000     0.0700162  
H215     H      0.269950000000     0.435580000000     0.208570000000     0.0396268  
H216     H      0.219620000000     0.492860000000     0.344380000000     0.032613   
H217     H      0.131250000000     0.488920000000     0.253650000000     0.0396515  
H218     H      0.374850000000     0.536280000000     0.164960000000     0.0354428  
H219     H      0.166470000000     0.455070000000     0.373740000000     0.0305767  
H220     H      0.255410000000     0.501950000000     0.131640000000     0.0330513  
H221     H      0.345680000000     0.501190000000     0.220590000000     0.0329624  
H222     H      0.306950000000     0.489120000000     0.078800000000     0.0388286  
H223     H      0.077850000000     0.500280000000     0.306360000000     0.0192939  
H224     H      0.217860000000     0.427760000000     0.259720000000     0.0414156  
H225     H      0.166230000000     0.503740000000     0.396270000000     0.0371423  
H226     H      0.258040000000     0.563930000000     0.216050000000     0.0430044  
H227     H      0.187980000000     0.535590000000     0.335170000000     0.0361895  
H228     H      0.397640000000     0.487770000000     0.167880000000     0.0383898  
H229     H      0.284630000000     0.457300000000     0.139800000000     0.036619   
H230     H      0.336670000000     0.456820000000     0.191230000000     0.0363121  
H231     H      0.205700000000     0.556050000000     0.267060000000     0.0394478  
H232     H      0.137310000000     0.532830000000     0.283910000000     0.0417522  
H233     H      0.310930000000     0.537170000000     0.102400000000     0.0358155  
H234     H      0.088390000000     0.433660000000     0.275710000000     0.0605293  
H235     H      0.073990000000     0.428650000000     0.327210000000     0.0699916  
H236     H      0.125520000000     0.421380000000     0.313080000000     0.0692839  
H237     H      0.268040000000     0.425510000000     0.770450000000     0.0393872  
H238     H      0.128240000000     0.468590000000     0.718970000000     0.0331484  
H239     H      0.218690000000     0.473940000000     0.630250000000     0.039397   
H240     H      0.305280000000     0.533020000000     0.871940000000     0.0371166  
H241     H      0.102460000000     0.430360000000     0.663530000000     0.0351395  
H242     H      0.340330000000     0.495480000000     0.754660000000     0.0329597  
H243     H      0.251140000000     0.493860000000     0.844700000000     0.0329314  
H244     H      0.393590000000     0.487580000000     0.806660000000     0.0380789  
H245     H      0.165540000000     0.483340000000     0.577390000000     0.0164418  
H246     H      0.217680000000     0.412820000000     0.718480000000     0.0418398  
H247     H      0.075410000000     0.476550000000     0.666610000000     0.0372593  
H248     H      0.250860000000     0.552640000000     0.756110000000     0.0429661  
H249     H      0.133830000000     0.513090000000     0.688960000000     0.0352672  
H250     H      0.303990000000     0.485750000000     0.897390000000     0.0374186  
H251     H      0.334400000000     0.451570000000     0.785480000000     0.0356896  
H252     H      0.282630000000     0.450600000000     0.837650000000     0.0355333  
H253     H      0.200370000000     0.539960000000     0.704300000000     0.0385895  
H254     H      0.185800000000     0.515760000000     0.637510000000     0.0393999  
H255     H      0.367190000000     0.534230000000     0.809240000000     0.0369648  
H256     H      0.198990000000     0.418180000000     0.585850000000     0.0608245  
H257     H      0.147500000000     0.411000000000     0.572180000000     0.0758643  
H258     H      0.162980000000     0.403210000000     0.623300000000     0.0722069  
H259     H      0.699680000000     0.418440000000     0.764590000000     0.0395895  
H260     H      0.752280000000     0.468960000000     0.626870000000     0.0331748  
H261     H      0.840440000000     0.464650000000     0.717940000000     0.0396495  
H262     H      0.599000000000     0.524990000000     0.804800000000     0.0354054  
H263     H      0.806490000000     0.430680000000     0.598760000000     0.0327783  
H264     H      0.716840000000     0.486230000000     0.839490000000     0.0327654  
H265     H      0.626570000000     0.486650000000     0.750570000000     0.0330785  
H266     H      0.664750000000     0.477550000000     0.892710000000     0.0382676  
H267     H      0.894010000000     0.475730000000     0.665860000000     0.0189724  
H268     H      0.751440000000     0.407160000000     0.713680000000     0.0416312  
H269     H      0.805230000000     0.478750000000     0.575020000000     0.0379456  
H270     H      0.716330000000     0.545960000000     0.753290000000     0.0431566  
H271     H      0.783850000000     0.511850000000     0.635680000000     0.0367097  
H272     H      0.574090000000     0.477470000000     0.803710000000     0.0384359  
H273     H      0.685520000000     0.442780000000     0.832800000000     0.0363227  
H274     H      0.633570000000     0.442970000000     0.781480000000     0.0363226  
H275     H      0.768200000000     0.534690000000     0.702580000000     0.0395245  
H276     H      0.834950000000     0.508950000000     0.688060000000     0.042103   
H277     H      0.663210000000     0.525000000000     0.867640000000     0.0354534  
H278     H      0.882730000000     0.408690000000     0.694490000000     0.0603015  
H279     H      0.896490000000     0.404710000000     0.642670000000     0.0699335  
H280     H      0.845000000000     0.397870000000     0.657320000000     0.0702987  
H281     H      0.769820000000     0.764570000000     0.050200000000     0.0390744  
H282     H      0.634440000000     0.715210000000     0.994900000000     0.033013   
H283     H      0.722350000000     0.623870000000     0.999050000000     0.0400311  
H284     H      0.812580000000     0.866090000000     0.944710000000     0.0381902  
H285     H      0.603300000000     0.661590000000     0.031440000000     0.0366617  
H286     H      0.848260000000     0.749810000000     0.987640000000     0.0329004  
H287     H      0.757030000000     0.837470000000     0.980160000000     0.0332009  
H288     H      0.899250000000     0.803970000000     0.999300000000     0.0367545  
H289     H      0.668530000000     0.572250000000     0.986130000000     0.0159179  
H290     H      0.718120000000     0.713050000000     0.058880000000     0.0415451  
H291     H      0.581110000000     0.663960000000     0.982710000000     0.0371434  
H292     H      0.763950000000     0.748870000000     0.922310000000     0.043297   
H293     H      0.643160000000     0.684130000000     0.951680000000     0.0359627  
H294     H      0.807920000000     0.891660000000     0.991630000000     0.03693    
H295     H      0.837850000000     0.781530000000     0.030020000000     0.0364437  
H296     H      0.785400000000     0.832010000000     0.025690000000     0.0366412  
H297     H      0.712220000000     0.697420000000     0.930970000000     0.0390793  
H298     H      0.693320000000     0.631260000000     0.954530000000     0.0419188  
H299     H      0.877790000000     0.803550000000     0.950160000000     0.038101   
H300     H      0.696900000000     0.581140000000     0.053650000000     0.0616978  
H301     H      0.644640000000     0.569110000000     0.056900000000     0.0781837  
H302     H      0.660930000000     0.619950000000     0.064880000000     0.073159   
H303     H      0.700390000000     0.263930000000     0.039620000000     0.0391459  
H304     H      0.751130000000     0.125010000000     0.990160000000     0.0328819  
H305     H      0.838380000000     0.216950000000     0.985970000000     0.0387501  
H306     H      0.595280000000     0.304120000000     0.937340000000     0.0380333  
H307     H      0.806730000000     0.098210000000     0.026930000000     0.0373867  
H308     H      0.714710000000     0.337610000000     0.970220000000     0.0329199  
H309     H      0.623780000000     0.249360000000     0.974550000000     0.0333214  
H310     H      0.663700000000     0.391380000000     0.981020000000     0.0372924  
H311     H      0.891970000000     0.164610000000     0.975150000000     0.0161332  
H312     H      0.752680000000     0.213230000000     0.049320000000     0.0419255  
H313     H      0.804530000000     0.073230000000     0.979550000000     0.0373686  
H314     H      0.710580000000     0.249950000000     0.911780000000     0.0428637  
H315     H      0.780630000000     0.132360000000     0.945610000000     0.0347721  
H316     H      0.572190000000     0.302870000000     0.985750000000     0.037179   
H317     H      0.685610000000     0.331430000000     0.015220000000     0.0368103  
H318     H      0.633070000000     0.280310000000     0.017760000000     0.0367369  
H319     H      0.762880000000     0.199230000000     0.921510000000     0.0385485  
H320     H      0.831120000000     0.184590000000     0.943750000000     0.0393295  
H321     H      0.659130000000     0.365760000000     0.934100000000     0.037884   
H322     H      0.883360000000     0.197410000000     0.040840000000     0.0609677  
H323     H      0.898340000000     0.146180000000     0.047260000000     0.0773509  
H324     H      0.846960000000     0.160260000000     0.055700000000     0.0727067  
H325     H      0.273200000000     0.708110000000     0.050410000000     0.0393411  
H326     H      0.222360000000     0.848260000000     0.000430000000     0.0353472  
H327     H      0.134720000000     0.756590000000     0.003650000000     0.041768   
H328     H      0.374560000000     0.669150000000     0.944930000000     0.0333089  
H329     H      0.168420000000     0.876060000000     0.039140000000     0.0346201  
H330     H      0.256420000000     0.634690000000     0.980300000000     0.0330451  
H331     H      0.347680000000     0.722550000000     0.984690000000     0.0326173  
H332     H      0.307790000000     0.580550000000     0.989010000000     0.0374681  
H333     H      0.080790000000     0.808470000000     0.994390000000     0.0144036  
H334     H      0.222090000000     0.759700000000     0.061740000000     0.0414811  
H335     H      0.168760000000     0.899990000000     0.991180000000     0.0352795  
H336     H      0.259130000000     0.722200000000     0.922970000000     0.042787   
H337     H      0.190670000000     0.839800000000     0.957610000000     0.0361143  
H338     H      0.399460000000     0.668720000000     0.992450000000     0.0361265  
H339     H      0.286660000000     0.639860000000     0.024650000000     0.0369717  
H340     H      0.339440000000     0.690180000000     0.027070000000     0.036877   
H341     H      0.207760000000     0.773500000000     0.934290000000     0.0385623  
H342     H      0.139810000000     0.787470000000     0.959990000000     0.0406742  
H343     H      0.310560000000     0.606670000000     0.942250000000     0.0367845  
H344     H      0.092050000000     0.779250000000     0.060610000000     0.0620616  
H345     H      0.080470000000     0.831620000000     0.065840000000     0.0766324  
H346     H      0.131340000000     0.814870000000     0.071410000000     0.0730678  
H347     H      0.266380000000     0.273460000000     0.926570000000     0.0391867  
H348     H      0.216040000000     0.134240000000     0.972650000000     0.0336084  
H349     H      0.124870000000     0.222390000000     0.968950000000     0.0394414  
H350     H      0.364110000000     0.311080000000     0.036830000000     0.037075   
H351     H      0.163530000000     0.105310000000     0.932620000000     0.0352304  
H352     H      0.249430000000     0.347980000000     0.994530000000     0.0331983  
H353     H      0.337300000000     0.256600000000     0.997800000000     0.0335698  
H354     H      0.303020000000     0.399930000000     0.987270000000     0.0358035  
H355     H      0.072960000000     0.168230000000     0.977590000000     0.015644   
H356     H      0.215650000000     0.222020000000     0.913120000000     0.0418152  
H357     H      0.164760000000     0.080270000000     0.980000000000     0.0371775  
H358     H      0.246800000000     0.259600000000     0.053320000000     0.0428765  
H359     H      0.183410000000     0.140850000000     0.015090000000     0.0370184  
H360     H      0.391440000000     0.307800000000     0.990780000000     0.0363249  
H361     H      0.281480000000     0.340390000000     0.951810000000     0.0362528  
H362     H      0.332560000000     0.287390000000     0.953740000000     0.036503   
H363     H      0.196000000000     0.208250000000     0.039860000000     0.0387916  
H364     H      0.130540000000     0.191540000000     0.012530000000     0.0408968  
H365     H      0.303430000000     0.374360000000     0.034470000000     0.03708    
H366     H      0.084490000000     0.198890000000     0.911590000000     0.0608502  
H367     H      0.072640000000     0.146690000000     0.906070000000     0.0758258  
H368     H      0.123700000000     0.163310000000     0.900600000000     0.0721524  
H369     H      0.708110000000     0.037820000000     0.702440000000     0.0393056  
H370     H      0.755050000000     0.982010000000     0.840060000000     0.0326982  
H371     H      0.845560000000     0.984370000000     0.751380000000     0.0393113  
H372     H      0.604360000000     0.935030000000     0.659590000000     0.0355344  
H373     H      0.808180000000     0.019000000000     0.870960000000     0.0349687  
H374     H      0.722030000000     0.973150000000     0.625120000000     0.0330449  
H375     H      0.633150000000     0.970170000000     0.715400000000     0.0332809  
H376     H      0.669070000000     0.986190000000     0.573270000000     0.0376361  
H377     H      0.897670000000     0.973630000000     0.805070000000     0.0192252  
H378     H      0.758890000000     0.045900000000     0.754860000000     0.0414657  
H379     H      0.807280000000     0.970170000000     0.893170000000     0.0377098  
H380     H      0.719960000000     0.909520000000     0.710730000000     0.0431881  
H381     H      0.786130000000     0.938710000000     0.831770000000     0.0362908  
H382     H      0.580110000000     0.982700000000     0.663960000000     0.0382425  
H383     H      0.691980000000     0.016970000000     0.634570000000     0.0374139  
H384     H      0.640570000000     0.015190000000     0.686570000000     0.0375866  
H385     H      0.770840000000     0.917650000000     0.763160000000     0.0395727  
H386     H      0.838520000000     0.940690000000     0.781820000000     0.0420203  
H387     H      0.666990000000     0.937420000000     0.595620000000     0.0356784  
H388     H      0.888220000000     0.040180000000     0.775010000000     0.0604975  
H389     H      0.899360000000     0.045350000000     0.827420000000     0.0693852  
H390     H      0.848810000000     0.051950000000     0.810130000000     0.0697974  
H391     H      0.208110000000     0.039600000000     0.771750000000     0.0392972  
H392     H      0.347700000000     0.986580000000     0.721890000000     0.0327042  
H393     H      0.256330000000     0.991130000000     0.634140000000     0.0394475  
H394     H      0.166340000000     0.935970000000     0.874410000000     0.034663   
H395     H      0.376620000000     0.024960000000     0.668480000000     0.0348338  
H396     H      0.133410000000     0.970790000000     0.755560000000     0.0330993  
H397     H      0.221400000000     0.973300000000     0.846750000000     0.0330245  
H398     H      0.079640000000     0.981560000000     0.806780000000     0.0381532  
H399     H      0.308250000000     0.981570000000     0.580230000000     0.0192494  
H400     H      0.260160000000     0.049740000000     0.720940000000     0.0417273  
H401     H      0.399260000000     0.976340000000     0.667980000000     0.0381586  
H402     H      0.220160000000     0.911730000000     0.758610000000     0.0427816  
H403     H      0.338630000000     0.943990000000     0.690030000000     0.0363497  
H404     H      0.168140000000     0.983980000000     0.898360000000     0.0378521  
H405     H      0.139910000000     0.015440000000     0.785190000000     0.0377464  
H406     H      0.190760000000     0.016870000000     0.838040000000     0.037578   
H407     H      0.271950000000     0.921900000000     0.707490000000     0.0394316  
H408     H      0.286830000000     0.947210000000     0.639170000000     0.0422214  
H409     H      0.104740000000     0.934260000000     0.810670000000     0.0349407  
H410     H      0.278930000000     0.047990000000     0.592180000000     0.0610383  
H411     H      0.330940000000     0.053070000000     0.579450000000     0.0705818  
H412     H      0.315360000000     0.058660000000     0.630720000000     0.0710228  
H413     H      0.201900000000     0.938090000000     0.204910000000     0.0400965  
H414     H      0.339240000000     0.989240000000     0.255380000000     0.032916   
H415     H      0.250260000000     0.985110000000     0.345560000000     0.0399738  
H416     H      0.162770000000     0.043390000000     0.102950000000     0.0342211  
H417     H      0.368120000000     0.949170000000     0.307380000000     0.0300867  
H418     H      0.126690000000     0.006550000000     0.219950000000     0.0351062  
H419     H      0.217570000000     0.006190000000     0.131550000000     0.0351453  
H420     H      0.074650000000     0.996640000000     0.167150000000     0.0370253  
H421     H      0.304150000000     0.993740000000     0.398150000000     0.0187727  
H422     H      0.252810000000     0.926990000000     0.256630000000     0.0411391  
H423     H      0.392490000000     0.996970000000     0.307570000000     0.036733   
H424     H      0.213460000000     0.065690000000     0.220870000000     0.0435262  
H425     H      0.331890000000     0.031420000000     0.288250000000     0.0381042  
H426     H      0.166090000000     0.995930000000     0.078050000000     0.0367519  
H427     H      0.134360000000     0.962370000000     0.189880000000     0.0375421  
H428     H      0.187170000000     0.962140000000     0.138550000000     0.0372548  
H429     H      0.264200000000     0.054530000000     0.272870000000     0.0391918  
H430     H      0.281260000000     0.028610000000     0.340060000000     0.0435515  
H431     H      0.100070000000     0.043850000000     0.164180000000     0.0342176  
H432     H      0.272850000000     0.928010000000     0.387010000000     0.0608319  
H433     H      0.325070000000     0.921730000000     0.398260000000     0.0697043  
H434     H      0.307920000000     0.916560000000     0.347440000000     0.0699871  
H435     H      0.768220000000     0.931480000000     0.200990000000     0.0389524  
H436     H      0.716110000000     0.978370000000     0.337900000000     0.0332893  
H437     H      0.625640000000     0.977840000000     0.249060000000     0.0400642  
H438     H      0.866400000000     0.041030000000     0.160940000000     0.0363406  
H439     H      0.662450000000     0.939480000000     0.366170000000     0.0351523  
H440     H      0.751740000000     0.997270000000     0.125270000000     0.0334309  
H441     H      0.839530000000     0.003580000000     0.216500000000     0.0351436  
H442     H      0.805260000000     0.988790000000     0.073660000000     0.0364295  
H443     H      0.573500000000     0.987750000000     0.303040000000     0.0172467  
H444     H      0.716370000000     0.919230000000     0.251570000000     0.041834   
H445     H      0.664550000000     0.986770000000     0.391380000000     0.0366822  
H446     H      0.749300000000     0.058680000000     0.212360000000     0.0427052  
H447     H      0.684650000000     0.021720000000     0.331270000000     0.037193   
H448     H      0.893770000000     0.995040000000     0.165450000000     0.0352867  
H449     H      0.783990000000     0.954890000000     0.134100000000     0.0364062  
H450     H      0.834920000000     0.958540000000     0.187110000000     0.0365193  
H451     H      0.697650000000     0.046430000000     0.263110000000     0.039042   
H452     H      0.632300000000     0.021000000000     0.280280000000     0.0425515  
H453     H      0.805620000000     0.036690000000     0.097880000000     0.0361283  
H454     H      0.583080000000     0.921740000000     0.271480000000     0.0610353  
H455     H      0.570630000000     0.915890000000     0.323430000000     0.0764951  
H456     H      0.621620000000     0.908990000000     0.307190000000     0.0724011  
H457     H      0.930670000000     0.250270000000     0.687000000000     0.0383776  
H458     H      0.989830000000     0.114620000000     0.743830000000     0.0329171  
H459     H      0.975610000000     0.209300000000     0.826980000000     0.038981   
H460     H      0.034270000000     0.300840000000     0.588660000000     0.0368256  
H461     H      0.949860000000     0.086290000000     0.796100000000     0.030283   
H462     H      0.995590000000     0.327850000000     0.708520000000     0.0325043  
H463     H      0.998790000000     0.243510000000     0.613900000000     0.0331708  
H464     H      0.984400000000     0.383180000000     0.659410000000     0.0343496  
H465     H      0.985470000000     0.160140000000     0.883600000000     0.0169162  
H466     H      0.921380000000     0.198610000000     0.738390000000     0.0411021  
H467     H      0.999210000000     0.065830000000     0.800410000000     0.0370311  
H468     H      0.058220000000     0.245740000000     0.705550000000     0.0426042  
H469     H      0.029840000000     0.127360000000     0.777670000000     0.0371469  
H470     H      0.986600000000     0.298880000000     0.564190000000     0.0354409  
H471     H      0.952160000000     0.320910000000     0.677280000000     0.0344489  
H472     H      0.953910000000     0.272060000000     0.622810000000     0.0351751  
H473     H      0.048860000000     0.194360000000     0.757300000000     0.0388607  
H474     H      0.021200000000     0.181040000000     0.825490000000     0.0412266  
H475     H      0.032640000000     0.359970000000     0.655820000000     0.036761   
H476     H      0.918340000000     0.186140000000     0.866720000000     0.0598073  
H477     H      0.915190000000     0.135130000000     0.883440000000     0.0680235  
H478     H      0.910950000000     0.146310000000     0.830840000000     0.0688868  
H479     H      0.046690000000     0.689530000000     0.718060000000     0.0389924  
H480     H      0.997450000000     0.827230000000     0.764110000000     0.033501   
H481     H      0.998020000000     0.742960000000     0.858920000000     0.0398863  
H482     H      0.938430000000     0.655020000000     0.616870000000     0.0335844  
H483     H      0.035180000000     0.858970000000     0.816550000000     0.0325     
H484     H      0.980440000000     0.613180000000     0.729840000000     0.0328884  
H485     H      0.977060000000     0.708240000000     0.646010000000     0.0325512  
H486     H      0.989750000000     0.563820000000     0.673580000000     0.0367551  
H487     H      0.987100000000     0.799460000000     0.908210000000     0.0172734  
H488     H      0.057730000000     0.741220000000     0.769190000000     0.0414853  
H489     H      0.987500000000     0.883140000000     0.812930000000     0.0364299  
H490     H      0.919260000000     0.701220000000     0.733840000000     0.0429072  
H491     H      0.953890000000     0.821550000000     0.795370000000     0.0375877  
H492     H      0.984490000000     0.659560000000     0.589710000000     0.0362336  
H493     H      0.023310000000     0.622930000000     0.698630000000     0.0362257  
H494     H      0.021160000000     0.677400000000     0.649880000000     0.0366626  
H495     H      0.930270000000     0.752840000000     0.784960000000     0.0393859  
H496     H      0.954660000000     0.773360000000     0.850230000000     0.0427082  
H497     H      0.941730000000     0.587660000000     0.674790000000     0.037067   
H498     H      0.053470000000     0.768090000000     0.900640000000     0.0610186  
H499     H      0.058660000000     0.820670000000     0.910700000000     0.071155   
H500     H      0.066150000000     0.802140000000     0.860570000000     0.071077   
H501     H      0.927070000000     0.781750000000     0.218540000000     0.0390189  
H502     H      0.981710000000     0.646400000000     0.264790000000     0.0327443  
H503     H      0.976970000000     0.730400000000     0.359680000000     0.0396125  
H504     H      0.032970000000     0.817500000000     0.115880000000     0.0331535  
H505     H      0.943450000000     0.613940000000     0.316010000000     0.0298686  
H506     H      0.992190000000     0.859750000000     0.229510000000     0.0323097  
H507     H      0.995580000000     0.764250000000     0.146200000000     0.0324694  
H508     H      0.981370000000     0.908580000000     0.173100000000     0.0373823  
H509     H      0.988630000000     0.673860000000     0.409070000000     0.0186819  
H510     H      0.917690000000     0.730230000000     0.270130000000     0.0411287  
H511     H      0.991670000000     0.590590000000     0.313710000000     0.0368651  
H512     H      0.054850000000     0.773870000000     0.233990000000     0.0427612  
H513     H      0.024270000000     0.653160000000     0.297220000000     0.038017   
H514     H      0.986380000000     0.812650000000     0.089720000000     0.035026   
H515     H      0.949060000000     0.849190000000     0.198920000000     0.0350066  
H516     H      0.951180000000     0.794590000000     0.150600000000     0.0358406  
H517     H      0.045450000000     0.722560000000     0.285780000000     0.0392515  
H518     H      0.021190000000     0.701100000000     0.351630000000     0.0431084  
H519     H      0.029800000000     0.885590000000     0.173950000000     0.0386282  
H520     H      0.921790000000     0.704230000000     0.400760000000     0.0600923  
H521     H      0.917380000000     0.651580000000     0.410750000000     0.0696256  
H522     H      0.910160000000     0.669970000000     0.360550000000     0.0691269  
H523     H      0.048170000000     0.283700000000     0.250650000000     0.0385959  
H524     H      0.995510000000     0.146270000000     0.207870000000     0.0328138  
H525     H      0.991920000000     0.230160000000     0.112830000000     0.0386934  
H526     H      0.945360000000     0.316350000000     0.357880000000     0.0337436  
H527     H      0.030970000000     0.113810000000     0.154550000000     0.0350704  
H528     H      0.981870000000     0.360120000000     0.242700000000     0.0324192  
H529     H      0.983090000000     0.264570000000     0.325940000000     0.0325822  
H530     H      0.993850000000     0.409060000000     0.299150000000     0.0349699  
H531     H      0.979510000000     0.173360000000     0.064210000000     0.0169423  
H532     H      0.056300000000     0.231890000000     0.199100000000     0.0416747  
H533     H      0.983120000000     0.090210000000     0.159470000000     0.0382604  
H534     H      0.920030000000     0.272460000000     0.241610000000     0.0426127  
H535     H      0.950760000000     0.151900000000     0.178340000000     0.0358679  
H536     H      0.993100000000     0.313300000000     0.382100000000     0.0358933  
H537     H      0.026000000000     0.350370000000     0.272080000000     0.0344165  
H538     H      0.026490000000     0.296070000000     0.320170000000     0.035928   
H539     H      0.928150000000     0.220790000000     0.189990000000     0.0389218  
H540     H      0.949230000000     0.199410000000     0.123410000000     0.0398316  
H541     H      0.945510000000     0.385910000000     0.298850000000     0.0375034  
H542     H      0.045870000000     0.205580000000     0.069190000000     0.060515   
H543     H      0.051230000000     0.153100000000     0.058830000000     0.071389   
H544     H      0.060470000000     0.171580000000     0.108660000000     0.070672   
N1       N      0.489400000000     0.355630000000     0.117680000000    -0.17809    
N2       N      0.494730000000     0.296470000000     0.177690000000    -0.110716   
N3       N      0.468290000000     0.178810000000     0.298210000000    -0.114022   
N4       N      0.475960000000     0.118670000000     0.357040000000    -0.167084   
N5       N      0.479470000000     0.856560000000     0.352350000000    -0.178477   
N6       N      0.475900000000     0.797490000000     0.292000000000    -0.110767   
N7       N      0.506570000000     0.678310000000     0.173770000000    -0.114099   
N8       N      0.500070000000     0.617920000000     0.114870000000    -0.166901   
N9       N      0.479510000000     0.614910000000     0.852970000000    -0.17872    
N10      N      0.473490000000     0.673360000000     0.792370000000    -0.110613   
N11      N      0.500200000000     0.791640000000     0.672630000000    -0.114081   
N12      N      0.493300000000     0.851980000000     0.614050000000    -0.167185   
N13      N      0.497590000000     0.113870000000     0.618960000000    -0.178157   
N14      N      0.501940000000     0.172690000000     0.679680000000    -0.110624   
N15      N      0.470500000000     0.292590000000     0.797060000000    -0.114108   
N16      N      0.475480000000     0.353130000000     0.855940000000    -0.166697   
N17      N      0.855790000000     0.354840000000     0.469910000000    -0.178599   
N18      N      0.796350000000     0.294950000000     0.463930000000    -0.110712   
N19      N      0.678770000000     0.174960000000     0.493290000000    -0.114215   
N20      N      0.618820000000     0.115690000000     0.489200000000    -0.167373   
N21      N      0.853560000000     0.615690000000     0.499120000000    -0.178637   
N22      N      0.793110000000     0.674830000000     0.501520000000    -0.110662   
N23      N      0.675090000000     0.793250000000     0.467050000000    -0.11412    
N24      N      0.615870000000     0.853530000000     0.471770000000    -0.166802   
N25      N      0.118160000000     0.356520000000     0.474810000000    -0.178159   
N26      N      0.178620000000     0.297480000000     0.469950000000    -0.110802   
N27      N      0.297450000000     0.178370000000     0.499030000000    -0.114247   
N28      N      0.356680000000     0.118180000000     0.493980000000    -0.166767   
N29      N      0.116070000000     0.617310000000     0.502860000000    -0.178149   
N30      N      0.175580000000     0.677100000000     0.509650000000    -0.110714   
N31      N      0.293530000000     0.796790000000     0.480220000000    -0.114311   
N32      N      0.353780000000     0.855760000000     0.484130000000    -0.167246   
N33      N      0.855250000000     0.498980000000     0.355210000000    -0.17783    
N34      N      0.795940000000     0.505230000000     0.295110000000    -0.110793   
N35      N      0.679180000000     0.477310000000     0.173850000000    -0.114272   
N36      N      0.619060000000     0.481250000000     0.114720000000    -0.167297   
N37      N      0.117540000000     0.491110000000     0.355970000000    -0.178124   
N38      N      0.177680000000     0.485070000000     0.297150000000    -0.110866   
N39      N      0.298240000000     0.506490000000     0.178520000000    -0.114072   
N40      N      0.357060000000     0.496980000000     0.118650000000    -0.166741   
N41      N      0.116470000000     0.471050000000     0.617040000000    -0.178393   
N42      N      0.176050000000     0.466430000000     0.677030000000    -0.110599   
N43      N      0.293000000000     0.499060000000     0.797070000000    -0.114049   
N44      N      0.353080000000     0.494520000000     0.856480000000    -0.166647   
N45      N      0.854260000000     0.468610000000     0.615880000000    -0.178383   
N46      N      0.793780000000     0.461920000000     0.674610000000    -0.110756   
N47      N      0.674170000000     0.491270000000     0.792530000000    -0.114077   
N48      N      0.615080000000     0.486730000000     0.852590000000    -0.166899   
N49      N      0.619870000000     0.613500000000     0.993640000000    -0.179172   
N50      N      0.680530000000     0.671910000000     0.002200000000    -0.108255   
N51      N      0.800530000000     0.791020000000     0.978880000000    -0.113327   
N52      N      0.858500000000     0.852100000000     0.985940000000    -0.166992   
N53      N      0.853280000000     0.114790000000     0.987310000000    -0.178333   
N54      N      0.792530000000     0.173260000000     0.993430000000    -0.110802   
N55      N      0.671570000000     0.290840000000     0.967690000000    -0.113421   
N56      N      0.613200000000     0.351550000000     0.975240000000    -0.16699    
N57      N      0.120250000000     0.858700000000     0.001880000000    -0.178618   
N58      N      0.181100000000     0.800230000000     0.007070000000    -0.107797   
N59      N      0.299740000000     0.681280000000     0.977610000000    -0.11363    
N60      N      0.358060000000     0.620380000000     0.981720000000    -0.167556   
N61      N      0.114540000000     0.119730000000     0.970050000000    -0.178972   
N62      N      0.173070000000     0.180760000000     0.966050000000    -0.110092   
N63      N      0.290540000000     0.299720000000     0.000450000000    -0.111441   
N64      N      0.351470000000     0.358260000000     0.996570000000    -0.168838   
N65      N      0.856880000000     0.982250000000     0.853910000000    -0.17758    
N66      N      0.798070000000     0.988770000000     0.793670000000    -0.110961   
N67      N      0.680060000000     0.966750000000     0.672540000000    -0.11346    
N68      N      0.620040000000     0.975790000000     0.613750000000    -0.167051   
N69      N      0.358390000000     0.988880000000     0.619710000000    -0.177744   
N70      N      0.299960000000     0.994150000000     0.680520000000    -0.110912   
N71      N      0.180020000000     0.967390000000     0.798770000000    -0.113633   
N72      N      0.119350000000     0.974690000000     0.857130000000    -0.167154   
N73      N      0.352780000000     0.985260000000     0.357100000000    -0.178424   
N74      N      0.292590000000     0.981800000000     0.298030000000    -0.110154   
N75      N      0.174690000000     0.010790000000     0.178360000000    -0.112537   
N76      N      0.115970000000     0.003560000000     0.118010000000    -0.166886   
N77      N      0.614420000000     0.978140000000     0.351600000000    -0.178547   
N78      N      0.673350000000     0.973170000000     0.291050000000    -0.110048   
N79      N      0.792790000000     0.004770000000     0.173330000000    -0.111339   
N80      N      0.853780000000     0.999360000000     0.115000000000    -0.169032   
N81      N      0.982040000000     0.108020000000     0.846100000000    -0.178836   
N82      N      0.977210000000     0.163520000000     0.782600000000    -0.110413   
N83      N      0.002050000000     0.283180000000     0.663570000000    -0.111598   
N84      N      0.994160000000     0.346010000000     0.607540000000    -0.169302   
N85      N      0.996550000000     0.846080000000     0.865050000000    -0.179445   
N86      N      0.002790000000     0.782570000000     0.809200000000    -0.108219   
N87      N      0.974010000000     0.663010000000     0.690740000000    -0.113627   
N88      N      0.978580000000     0.607260000000     0.627230000000    -0.167085   
N89      N      0.980370000000     0.627250000000     0.365670000000    -0.178148   
N90      N      0.973910000000     0.690620000000     0.309970000000    -0.110344   
N91      N      0.998850000000     0.809850000000     0.190550000000    -0.114075   
N92      N      0.992820000000     0.865110000000     0.126850000000    -0.167722   
N93      N      0.991200000000     0.127010000000     0.107080000000    -0.177949   
N94      N      0.999180000000     0.190610000000     0.162310000000    -0.110893   
N95      N      0.977140000000     0.310200000000     0.281910000000    -0.11355    
N96      N      0.983200000000     0.365470000000     0.345400000000    -0.167664   
O1       O      0.986390000000     0.104430000000     0.042700000000    -0.380616   
O2       O      0.989650000000     0.877940000000     0.059660000000    -0.378092   
O3       O      0.920140000000     0.995860000000     0.098560000000    -0.378721   
O4       O      0.050460000000     0.996750000000     0.099860000000    -0.37608    
O5       O      0.099300000000     0.995520000000     0.052120000000    -0.378207   
O6       O      0.872540000000     0.990170000000     0.049910000000    -0.377299   
O7       O      0.988470000000     0.929650000000     0.104350000000    -0.378437   
O8       O      0.986610000000     0.059800000000     0.094450000000    -0.375907   
O9       O      0.027440000000     0.949850000000     0.029880000000    -0.504157   
O10      O      0.945060000000     0.028600000000     0.023220000000    -0.505632   
O11      O      0.946190000000     0.947640000000     0.029630000000    -0.648948   
O12      O      0.025920000000     0.030520000000     0.023970000000    -0.64917    
O13      O      0.991560000000     0.868410000000     0.929600000000    -0.378417   
O14      O      0.983290000000     0.094680000000     0.913140000000    -0.382613   
O15      O      0.874690000000     0.918620000000     0.986820000000    -0.379135   
O16      O      0.101390000000     0.924100000000     0.994280000000    -0.378459   
O17      O      0.098540000000     0.053680000000     0.978970000000    -0.377599   
O18      O      0.872070000000     0.048980000000     0.984620000000    -0.375946   
O19      O      0.922610000000     0.978750000000     0.872540000000    -0.379641   
O20      O      0.053100000000     0.978940000000     0.873680000000    -0.376283   
O21      O      0.873750000000     0.981770000000     0.920210000000    -0.379324   
O22      O      0.100770000000     0.982000000000     0.922510000000    -0.378843   
O23      O      0.923940000000     0.871430000000     0.990810000000    -0.37903    
O24      O      0.919390000000     0.098180000000     0.982010000000    -0.38153    
O25      O      0.049140000000     0.100700000000     0.975530000000    -0.381094   
O26      O      0.054020000000     0.874920000000     0.996620000000    -0.379185   
O27      O      0.990200000000     0.913100000000     0.877900000000    -0.377681   
O28      O      0.987160000000     0.043330000000     0.868220000000    -0.377539   
O29      O      0.026860000000     0.024780000000     0.943120000000    -0.504277   
O30      O      0.947450000000     0.942080000000     0.948250000000    -0.506334   
O31      O      0.945650000000     0.023050000000     0.942560000000    -0.650442   
O32      O      0.028280000000     0.943960000000     0.949340000000    -0.650194   
O33      O      0.985720000000     0.378200000000     0.412590000000    -0.378113   
O34      O      0.984150000000     0.604660000000     0.430220000000    -0.379832   
O35      O      0.921120000000     0.495090000000     0.373220000000    -0.37836    
O36      O      0.051470000000     0.493760000000     0.373500000000    -0.380254   
O37      O      0.099540000000     0.491380000000     0.421970000000    -0.380013   
O38      O      0.872520000000     0.491160000000     0.421030000000    -0.377896   
O39      O      0.985100000000     0.560100000000     0.378400000000    -0.379517   
O40      O      0.984960000000     0.430090000000     0.368090000000    -0.377616   
O41      O      0.026430000000     0.530470000000     0.449030000000    -0.505199   
O42      O      0.945980000000     0.448620000000     0.442750000000    -0.506379   
O43      O      0.945240000000     0.529370000000     0.449100000000    -0.651972   
O44      O      0.026710000000     0.449150000000     0.443070000000    -0.650886   
O45      O      0.982180000000     0.594360000000     0.560120000000    -0.377462   
O46      O      0.989290000000     0.367970000000     0.542820000000    -0.377973   
O47      O      0.871860000000     0.549990000000     0.492580000000    -0.378334   
O48      O      0.098630000000     0.551840000000     0.493480000000    -0.38166    
O49      O      0.099600000000     0.422090000000     0.481710000000    -0.378629   
O50      O      0.872970000000     0.420550000000     0.478320000000    -0.37864    
O51      O      0.920220000000     0.474960000000     0.599010000000    -0.380745   
O52      O      0.050470000000     0.476380000000     0.599610000000    -0.376878   
O53      O      0.872210000000     0.478050000000     0.550560000000    -0.379915   
O54      O      0.098820000000     0.479410000000     0.551480000000    -0.379556   
O55      O      0.919730000000     0.598650000000     0.495650000000    -0.379268   
O56      O      0.921590000000     0.372640000000     0.475860000000    -0.380795   
O57      O      0.051870000000     0.373370000000     0.477660000000    -0.377537   
O58      O      0.050140000000     0.599840000000     0.497040000000    -0.379045   
O59      O      0.982890000000     0.542610000000     0.604760000000    -0.378157   
O60      O      0.988670000000     0.412840000000     0.594360000000    -0.378592   
O61      O      0.026210000000     0.443270000000     0.523680000000    -0.506178   
O62      O      0.944770000000     0.523230000000     0.529650000000    -0.507007   
O63      O      0.945430000000     0.442030000000     0.523630000000    -0.650086   
O64      O      0.025880000000     0.523950000000     0.530290000000    -0.650958   
O65      O      0.598260000000     0.983160000000     0.417870000000    -0.378756   
O66      O      0.371720000000     0.987390000000     0.422890000000    -0.378765   
O67      O      0.482930000000     0.922330000000     0.371170000000    -0.379102   
O68      O      0.481480000000     0.052560000000     0.373570000000    -0.379415   
O69      O      0.482950000000     0.100180000000     0.422540000000    -0.378514   
O70      O      0.483240000000     0.873160000000     0.418600000000    -0.378309   
O71      O      0.419060000000     0.987280000000     0.373640000000    -0.379222   
O72      O      0.548940000000     0.984000000000     0.370660000000    -0.3809     
O73      O      0.445520000000     0.027140000000     0.446800000000    -0.506105   
O74      O      0.525400000000     0.945570000000     0.443750000000    -0.508074   
O75      O      0.444640000000     0.946230000000     0.445390000000    -0.652534   
O76      O      0.526830000000     0.026840000000     0.444440000000    -0.648797   
O77      O      0.374760000000     0.986240000000     0.553380000000    -0.380352   
O78      O      0.601390000000     0.981320000000     0.548090000000    -0.378214   
O79      O      0.420000000000     0.872820000000     0.484970000000    -0.378448   
O80      O      0.422530000000     0.099810000000     0.490470000000    -0.37692    
O81      O      0.552660000000     0.098540000000     0.486940000000    -0.379569   
O82      O      0.550230000000     0.871640000000     0.478400000000    -0.37635    
O83      O      0.489130000000     0.918190000000     0.597550000000    -0.378742   
O84      O      0.492200000000     0.048220000000     0.600200000000    -0.377335   
O85      O      0.488410000000     0.870670000000     0.548460000000    -0.380862   
O86      O      0.491820000000     0.097420000000     0.552780000000    -0.377964   
O87      O      0.372210000000     0.921630000000     0.487180000000    -0.378769   
O88      O      0.599000000000     0.919490000000     0.478760000000    -0.375598   
O89      O      0.600520000000     0.049790000000     0.485800000000    -0.378642   
O90      O      0.373710000000     0.051990000000     0.489450000000    -0.377114   
O91      O      0.424020000000     0.984810000000     0.600660000000    -0.379734   
O92      O      0.553970000000     0.981070000000     0.597250000000    -0.377354   
O93      O      0.528150000000     0.024830000000     0.525790000000    -0.506877   
O94      O      0.446100000000     0.944380000000     0.526470000000    -0.506304   
O95      O      0.527510000000     0.943810000000     0.524200000000    -0.652511   
O96      O      0.447390000000     0.025790000000     0.527730000000    -0.651283   
O97      O      0.417730000000     0.374260000000     0.991140000000    -0.377542   
O98      O      0.423670000000     0.601160000000     0.984670000000    -0.379728   
O99      O      0.373740000000     0.491630000000     0.052600000000    -0.378068   
O100     O      0.371390000000     0.489970000000     0.922310000000    -0.376784   
O101     O      0.419080000000     0.488990000000     0.873430000000    -0.375654   
O102     O      0.422670000000     0.490470000000     0.100250000000    -0.379115   
O103     O      0.374280000000     0.553960000000     0.984660000000    -0.376546   
O104     O      0.370630000000     0.423760000000     0.990770000000    -0.37928    
O105     O      0.446070000000     0.526530000000     0.945620000000    -0.508633   
O106     O      0.444870000000     0.446650000000     0.027240000000    -0.506088   
O107     O      0.446990000000     0.528020000000     0.026520000000    -0.649374   
O108     O      0.443270000000     0.445780000000     0.946070000000    -0.651216   
O109     O      0.553690000000     0.597660000000     0.986590000000    -0.379102   
O110     O      0.547800000000     0.370640000000     0.981840000000    -0.376746   
O111     O      0.493310000000     0.551870000000     0.098100000000    -0.376518   
O112     O      0.483320000000     0.549240000000     0.871490000000    -0.378313   
O113     O      0.481260000000     0.419270000000     0.872800000000    -0.378994   
O114     O      0.486470000000     0.421500000000     0.099340000000    -0.380233   
O115     O      0.600400000000     0.482650000000     0.048850000000    -0.37753    
O116     O      0.598190000000     0.484690000000     0.918770000000    -0.379578   
O117     O      0.552850000000     0.484510000000     0.097860000000    -0.377061   
O118     O      0.549250000000     0.484170000000     0.871120000000    -0.378617   
O119     O      0.492350000000     0.599780000000     0.049400000000    -0.376658   
O120     O      0.485590000000     0.372670000000     0.051540000000    -0.378783   
O121     O      0.479670000000     0.371550000000     0.921680000000    -0.378366   
O122     O      0.485380000000     0.598220000000     0.919090000000    -0.380633   
O123     O      0.600640000000     0.548050000000     0.987790000000    -0.379241   
O124     O      0.597200000000     0.417850000000     0.980570000000    -0.378545   
O125     O      0.524680000000     0.443680000000     0.944850000000    -0.508389   
O126     O      0.527660000000     0.525370000000     0.024780000000    -0.507694   
O127     O      0.525980000000     0.444470000000     0.025730000000    -0.649854   
O128     O      0.526870000000     0.525210000000     0.943810000000    -0.650036   
Zr1      Zr     0.985740000000     0.992180000000     0.066700000000     1.42005    
Zr2      Zr     0.988190000000     0.905910000000     0.992180000000     1.41808    
Zr3      Zr     0.985010000000     0.066640000000     0.980380000000     1.42364    
Zr4      Zr     0.906130000000     0.984470000000     0.985510000000     1.41969    
Zr5      Zr     0.067250000000     0.988150000000     0.986940000000     1.4227     
Zr6      Zr     0.987560000000     0.980620000000     0.905770000000     1.41884    
Zr7      Zr     0.986210000000     0.492510000000     0.406030000000     1.42147    
Zr8      Zr     0.985240000000     0.566720000000     0.492630000000     1.41968    
Zr9      Zr     0.986500000000     0.405650000000     0.480230000000     1.4228     
Zr10     Zr     0.905290000000     0.485430000000     0.486030000000     1.42631    
Zr11     Zr     0.066270000000     0.486890000000     0.486700000000     1.42501    
Zr12     Zr     0.985400000000     0.480150000000     0.566780000000     1.42287    
Zr13     Zr     0.484720000000     0.986980000000     0.405100000000     1.42478    
Zr14     Zr     0.405850000000     0.986410000000     0.487470000000     1.42208    
Zr15     Zr     0.567070000000     0.984910000000     0.483690000000     1.42306    
Zr16     Zr     0.485510000000     0.904880000000     0.484150000000     1.42786    
Zr17     Zr     0.487320000000     0.066220000000     0.486950000000     1.4233     
Zr18     Zr     0.488220000000     0.983870000000     0.566010000000     1.42458    
Zr19     Zr     0.405250000000     0.487940000000     0.987010000000     1.42333    
Zr20     Zr     0.487860000000     0.566430000000     0.984740000000     1.42548    
Zr21     Zr     0.483610000000     0.405130000000     0.986310000000     1.42216    
Zr22     Zr     0.487140000000     0.486490000000     0.066190000000     1.42524    
Zr23     Zr     0.484630000000     0.484750000000     0.905070000000     1.42605    
Zr24     Zr     0.566320000000     0.483790000000     0.984260000000     1.42379    


