data_structure

_audit_creation_method RASPA-1.0
_audit_creation_date 2023-5-19
_audit_author_name 'Poobodin Mano'

_cell_length_a    33.4594
_cell_length_b    33.4214
_cell_length_c    33.4316
_cell_angle_alpha 90
_cell_angle_beta  90
_cell_angle_gamma 90
_cell_volume      37385.2

_symmetry_cell_setting          triclinic
_symmetry_space_group_name_Hall 'P 1'
_symmetry_space_group_name_H-M  'P 1'
_symmetry_Int_Tables_number     1

_symmetry_equiv_pos_as_xyz 'x,y,z'

loop_
_atom_site_label
_atom_site_type_symbol
_atom_site_fract_x
_atom_site_fract_y
_atom_site_fract_z
_atom_site_charge
C1       C      0.996420000000     0.102060000000     0.091820000000     0.389878   
C2       C      0.991440000000     0.897920000000     0.101770000000     0.389082   
C3       C      0.891700000000     0.999650000000     0.095390000000     0.387643   
C4       C      0.095860000000     0.000690000000     0.097590000000     0.393118   
C5       C      0.996000000000     0.887720000000     0.897710000000     0.390959   
C6       C      0.001630000000     0.091860000000     0.887790000000     0.392618   
C7       C      0.891270000000     0.894250000000     0.998740000000     0.388593   
C8       C      0.095370000000     0.891860000000     0.005560000000     0.391496   
C9       C      0.098030000000     0.095410000000     0.986120000000     0.391615   
C10      C      0.893980000000     0.098310000000     0.987570000000     0.389795   
C11      C      0.893970000000     0.993160000000     0.891190000000     0.390006   
C12      C      0.098000000000     0.986500000000     0.893850000000     0.389905   
C13      C      0.990370000000     0.398070000000     0.388080000000     0.391143   
C14      C      0.000520000000     0.602050000000     0.398180000000     0.393785   
C15      C      0.893340000000     0.503090000000     0.391680000000     0.389938   
C16      C      0.097510000000     0.501620000000     0.394650000000     0.390287   
C17      C      0.989110000000     0.592000000000     0.602070000000     0.392566   
C18      C      0.990020000000     0.387900000000     0.592130000000     0.389717   
C19      C      0.893320000000     0.598420000000     0.502240000000     0.391415   
C20      C      0.097290000000     0.595720000000     0.504220000000     0.390278   
C21      C      0.094840000000     0.391700000000     0.495110000000     0.391246   
C22      C      0.890760000000     0.394380000000     0.490660000000     0.390568   
C23      C      0.890360000000     0.489940000000     0.595570000000     0.390467   
C24      C      0.094510000000     0.485410000000     0.598460000000     0.391185   
C25      C      0.595270000000     0.997740000000     0.391260000000     0.389196   
C26      C      0.391280000000     0.990340000000     0.393030000000     0.39077    
C27      C      0.499440000000     0.891990000000     0.393030000000     0.392924   
C28      C      0.487780000000     0.096070000000     0.391450000000     0.391812   
C29      C      0.392900000000     0.997180000000     0.597260000000     0.388644   
C30      C      0.597070000000     0.993610000000     0.595510000000     0.389489   
C31      C      0.392900000000     0.891650000000     0.493970000000     0.390371   
C32      C      0.391220000000     0.095930000000     0.490110000000     0.391529   
C33      C      0.595200000000     0.097750000000     0.490570000000     0.390652   
C34      C      0.596900000000     0.893420000000     0.490450000000     0.391472   
C35      C      0.491080000000     0.893390000000     0.597120000000     0.391369   
C36      C      0.498630000000     0.097690000000     0.595470000000     0.391614   
C37      C      0.393140000000     0.391520000000     0.996850000000     0.390486   
C38      C      0.597250000000     0.393620000000     0.995990000000     0.39127    
C39      C      0.490250000000     0.393240000000     0.891900000000     0.391655   
C40      C      0.500270000000     0.391960000000     0.095990000000     0.391438   
C41      C      0.595140000000     0.597990000000     0.991770000000     0.390497   
C42      C      0.391010000000     0.595960000000     0.994950000000     0.389367   
C43      C      0.594960000000     0.499430000000     0.891670000000     0.391415   
C44      C      0.597340000000     0.492190000000     0.095900000000     0.390669   
C45      C      0.393160000000     0.491470000000     0.098220000000     0.389361   
C46      C      0.390820000000     0.496170000000     0.893830000000     0.389618   
C47      C      0.496600000000     0.597530000000     0.893620000000     0.391463   
C48      C      0.490180000000     0.596070000000     0.097820000000     0.392525   
C49      C      0.494850000000     0.291590000000     0.144140000000    -0.0300341  
C50      C      0.493140000000     0.195780000000     0.342020000000    -0.0300954  
C51      C      0.476790000000     0.112890000000     0.320300000000    -0.00751916 
C52      C      0.476980000000     0.167050000000     0.373730000000    -0.00734693 
C53      C      0.454850000000     0.233140000000     0.253360000000    -0.0544915  
C54      C      0.533250000000     0.253330000000     0.232550000000    -0.0544725  
C55      C      0.486830000000     0.213860000000     0.272310000000     0.0608941  
C56      C      0.492980000000     0.144170000000     0.291110000000    -0.0300579  
C57      C      0.501270000000     0.272660000000     0.213640000000     0.0609243  
C58      C      0.495210000000     0.342550000000     0.195700000000    -0.0300862  
C59      C      0.461860000000     0.262310000000     0.224250000000    -0.056741   
C60      C      0.511370000000     0.374170000000     0.166880000000    -0.007376   
C61      C      0.510960000000     0.320710000000     0.112750000000    -0.00748029 
C62      C      0.526240000000     0.224160000000     0.261650000000    -0.0566831  
C63      C      0.495080000000     0.695840000000     0.147340000000    -0.0299881  
C64      C      0.495230000000     0.791550000000     0.345010000000    -0.0300896  
C65      C      0.510550000000     0.874340000000     0.322160000000    -0.00732328 
C66      C      0.510880000000     0.820900000000     0.376370000000    -0.00725854 
C67      C      0.462820000000     0.761720000000     0.265010000000    -0.0568863  
C68      C      0.527840000000     0.724680000000     0.227610000000    -0.0568083  
C69      C      0.502050000000     0.772720000000     0.275580000000     0.0610567  
C70      C      0.494870000000     0.842470000000     0.293400000000    -0.029984   
C71      C      0.488600000000     0.713710000000     0.217020000000     0.0609289  
C72      C      0.496090000000     0.644210000000     0.198200000000    -0.02998    
C73      C      0.456300000000     0.732430000000     0.235950000000    -0.0545402  
C74      C      0.480320000000     0.612660000000     0.169120000000    -0.00744614 
C75      C      0.479260000000     0.666920000000     0.115680000000    -0.00742798 
C76      C      0.534360000000     0.753970000000     0.256690000000    -0.0547293  
C77      C      0.495950000000     0.845090000000     0.697760000000    -0.0301073  
C78      C      0.491930000000     0.647250000000     0.793700000000    -0.0300594  
C79      C      0.506730000000     0.668780000000     0.876930000000    -0.00733211 
C80      C      0.507000000000     0.615250000000     0.822680000000    -0.00730159 
C81      C      0.532690000000     0.735280000000     0.757340000000    -0.0546124  
C82      C      0.455190000000     0.757340000000     0.735100000000    -0.0545187  
C83      C      0.499910000000     0.716850000000     0.775780000000     0.0609039  
C84      C      0.491650000000     0.698130000000     0.845250000000    -0.0300605  
C85      C      0.487970000000     0.775700000000     0.716610000000     0.0607653  
C86      C      0.496190000000     0.793510000000     0.646920000000    -0.0299056  
C87      C      0.526910000000     0.764470000000     0.727990000000    -0.0567451  
C88      C      0.481030000000     0.822370000000     0.614850000000    -0.00759983 
C89      C      0.480800000000     0.876680000000     0.668340000000    -0.00747111 
C90      C      0.460960000000     0.728140000000     0.764460000000    -0.0568901  
C91      C      0.496180000000     0.293500000000     0.842070000000    -0.0300474  
C92      C      0.492780000000     0.198040000000     0.644030000000    -0.0300027  
C93      C      0.510040000000     0.115450000000     0.666270000000    -0.00759372 
C94      C      0.508230000000     0.169060000000     0.612180000000    -0.00756493 
C95      C      0.533510000000     0.236040000000     0.731550000000    -0.0545882  
C96      C      0.455690000000     0.256380000000     0.754300000000    -0.0545946  
C97      C      0.501030000000     0.216860000000     0.713380000000     0.0608115  
C98      C      0.494460000000     0.147020000000     0.695450000000    -0.0299777  
C99      C      0.488180000000     0.275530000000     0.772510000000     0.0607898  
C100     C      0.495040000000     0.345150000000     0.791280000000    -0.0299445  
C101     C      0.527290000000     0.265150000000     0.760890000000    -0.0568137  
C102     C      0.479470000000     0.376450000000     0.820770000000    -0.00757415 
C103     C      0.480680000000     0.322140000000     0.874190000000    -0.00751926 
C104     C      0.461920000000     0.227260000000     0.724970000000    -0.056803   
C105     C      0.840610000000     0.294410000000     0.483730000000    -0.0299238  
C106     C      0.643540000000     0.198510000000     0.494080000000    -0.029859   
C107     C      0.666060000000     0.115300000000     0.480420000000    -0.0073064  
C108     C      0.611730000000     0.168880000000     0.480000000000    -0.00730968 
C109     C      0.730040000000     0.235170000000     0.450740000000    -0.0545892  
C110     C      0.753820000000     0.258820000000     0.527360000000    -0.0545262  
C111     C      0.712580000000     0.217210000000     0.484300000000     0.0610293  
C112     C      0.695070000000     0.147720000000     0.494430000000    -0.0298283  
C113     C      0.771380000000     0.276690000000     0.493810000000     0.0610299  
C114     C      0.789960000000     0.345990000000     0.483980000000    -0.0298165  
C115     C      0.759210000000     0.264710000000     0.455310000000    -0.0568185  
C116     C      0.819420000000     0.377840000000     0.498330000000    -0.00718936 
C117     C      0.872970000000     0.323270000000     0.498080000000    -0.00712516 
C118     C      0.724620000000     0.229310000000     0.522800000000    -0.0568762  
C119     C      0.793750000000     0.647980000000     0.497190000000    -0.0299959  
C120     C      0.697380000000     0.845480000000     0.496150000000    -0.0300201  
C121     C      0.614730000000     0.822310000000     0.480980000000    -0.00744313 
C122     C      0.668050000000     0.876630000000     0.480010000000    -0.00750852 
C123     C      0.727200000000     0.765470000000     0.529380000000    -0.0567717  
C124     C      0.765090000000     0.728320000000     0.464670000000    -0.0568328  
C125     C      0.716480000000     0.775990000000     0.490020000000     0.0607725  
C126     C      0.646670000000     0.793780000000     0.497010000000    -0.0299817  
C127     C      0.775650000000     0.717640000000     0.504020000000     0.0608     
C128     C      0.845290000000     0.698910000000     0.497700000000    -0.0300636  
C129     C      0.756530000000     0.736500000000     0.536180000000    -0.0545948  
C130     C      0.876570000000     0.669570000000     0.513640000000    -0.00745463 
C131     C      0.822440000000     0.616150000000     0.513120000000    -0.00758647 
C132     C      0.735710000000     0.757250000000     0.457870000000    -0.0545504  
C133     C      0.341060000000     0.195610000000     0.494710000000    -0.0300604  
C134     C      0.143240000000     0.291090000000     0.487830000000    -0.0299163  
C135     C      0.165520000000     0.373550000000     0.505710000000    -0.00741946 
C136     C      0.111210000000     0.320090000000     0.502800000000    -0.00755733 
C137     C      0.230030000000     0.253070000000     0.530380000000    -0.0544947  
C138     C      0.253860000000     0.232210000000     0.452970000000    -0.0545387  
C139     C      0.212300000000     0.272000000000     0.497480000000     0.0608499  
C140     C      0.194730000000     0.341860000000     0.490490000000    -0.0299569  
C141     C      0.271600000000     0.213290000000     0.485860000000     0.0608506  
C142     C      0.290490000000     0.143800000000     0.493770000000    -0.0299733  
C143     C      0.259460000000     0.223960000000     0.524760000000    -0.0567297  
C144     C      0.320170000000     0.112390000000     0.478850000000    -0.00750898 
C145     C      0.373380000000     0.166890000000     0.479840000000    -0.00738424 
C146     C      0.224460000000     0.261360000000     0.458580000000    -0.05679    
C147     C      0.147060000000     0.695350000000     0.501040000000    -0.029908   
C148     C      0.344730000000     0.791000000000     0.500820000000    -0.0297975  
C149     C      0.321740000000     0.873900000000     0.486180000000    -0.0073621  
C150     C      0.376000000000     0.820330000000     0.484940000000    -0.00746918 
C151     C      0.264950000000     0.760690000000     0.533350000000    -0.0567915  
C152     C      0.227170000000     0.724420000000     0.468080000000    -0.0568243  
C153     C      0.275300000000     0.772160000000     0.494160000000     0.0608636  
C154     C      0.293250000000     0.841840000000     0.502020000000    -0.0298469  
C155     C      0.216800000000     0.712980000000     0.507260000000     0.0609089  
C156     C      0.197720000000     0.643590000000     0.499020000000    -0.0298516  
C157     C      0.235920000000     0.731320000000     0.539700000000    -0.0546006  
C158     C      0.168620000000     0.611900000000     0.514530000000    -0.00747342 
C159     C      0.115450000000     0.666290000000     0.516690000000    -0.00745353 
C160     C      0.256210000000     0.753780000000     0.461720000000    -0.0545004  
C161     C      0.647380000000     0.497710000000     0.195570000000    -0.0300183  
C162     C      0.845520000000     0.498310000000     0.290980000000    -0.029925   
C163     C      0.822390000000     0.513080000000     0.373770000000    -0.00754196 
C164     C      0.876700000000     0.514160000000     0.320480000000    -0.00753002 
C165     C      0.765620000000     0.465440000000     0.260790000000    -0.0567654  
C166     C      0.727670000000     0.530510000000     0.224290000000    -0.0568009  
C167     C      0.776020000000     0.504710000000     0.271990000000     0.0607467  
C168     C      0.793890000000     0.497210000000     0.341740000000    -0.0297823  
C169     C      0.717170000000     0.491240000000     0.213180000000     0.0607683  
C170     C      0.697930000000     0.498770000000     0.143760000000    -0.0299309  
C171     C      0.736420000000     0.458910000000     0.231610000000    -0.0544431  
C172     C      0.668730000000     0.482990000000     0.112300000000    -0.00753356 
C173     C      0.615560000000     0.481930000000     0.166770000000    -0.00751832 
C174     C      0.756860000000     0.537040000000     0.253470000000    -0.0546132  
C175     C      0.293660000000     0.498720000000     0.148470000000    -0.0298365  
C176     C      0.198000000000     0.495560000000     0.346590000000    -0.0299886  
C177     C      0.115810000000     0.513820000000     0.324090000000    -0.00750634 
C178     C      0.168990000000     0.511020000000     0.378420000000    -0.00774688 
C179     C      0.236640000000     0.536490000000     0.259190000000    -0.0543986  
C180     C      0.256480000000     0.458520000000     0.236290000000    -0.054548   
C181     C      0.217260000000     0.504070000000     0.277330000000     0.0606767  
C182     C      0.147340000000     0.498140000000     0.294920000000    -0.0299786  
C183     C      0.275830000000     0.490940000000     0.218130000000     0.0607173  
C184     C      0.345380000000     0.497610000000     0.199060000000    -0.0298369  
C185     C      0.265680000000     0.530130000000     0.229820000000    -0.0567175  
C186     C      0.376530000000     0.481770000000     0.169550000000    -0.00758699 
C187     C      0.322080000000     0.482950000000     0.116280000000    -0.00752958 
C188     C      0.227410000000     0.464880000000     0.265630000000    -0.0567165  
C189     C      0.142480000000     0.488640000000     0.698980000000    -0.0300818  
C190     C      0.340710000000     0.489490000000     0.794160000000    -0.0298146  
C191     C      0.319260000000     0.503870000000     0.877480000000    -0.00749217 
C192     C      0.372430000000     0.505560000000     0.822920000000    -0.00747526 
C193     C      0.251580000000     0.527930000000     0.758200000000    -0.0545698  
C194     C      0.231260000000     0.449800000000     0.736250000000    -0.054463   
C195     C      0.270880000000     0.495620000000     0.776590000000     0.0607821  
C196     C      0.290230000000     0.487880000000     0.845970000000    -0.0298119  
C197     C      0.212010000000     0.482130000000     0.717800000000     0.0607754  
C198     C      0.194040000000     0.489550000000     0.648080000000    -0.0299832  
C199     C      0.222380000000     0.521390000000     0.729030000000    -0.0567599  
C200     C      0.165330000000     0.473910000000     0.616120000000    -0.00755854 
C201     C      0.111190000000     0.473040000000     0.669470000000    -0.00761291 
C202     C      0.260470000000     0.456350000000     0.765410000000    -0.0567971  
C203     C      0.642700000000     0.494800000000     0.790950000000    -0.0300138  
C204     C      0.840290000000     0.494510000000     0.695150000000    -0.0298764  
C205     C      0.818790000000     0.481520000000     0.611610000000    -0.00750734 
C206     C      0.871860000000     0.478620000000     0.666170000000    -0.00733006 
C207     C      0.760140000000     0.527890000000     0.724070000000    -0.0568321  
C208     C      0.722440000000     0.462620000000     0.760450000000    -0.0567654  
C209     C      0.770490000000     0.488680000000     0.712630000000     0.0609191  
C210     C      0.789810000000     0.497180000000     0.643320000000    -0.0297573  
C211     C      0.712040000000     0.501830000000     0.771850000000     0.0608211  
C212     C      0.694420000000     0.494360000000     0.841640000000    -0.0299556  
C213     C      0.731110000000     0.534270000000     0.753430000000    -0.0544515  
C214     C      0.665780000000     0.509930000000     0.873680000000    -0.00738936 
C215     C      0.611410000000     0.510310000000     0.820450000000    -0.00740885 
C216     C      0.751410000000     0.456250000000     0.731050000000    -0.0546465  
C217     C      0.841030000000     0.794510000000     0.994100000000    -0.0355142  
C218     C      0.643220000000     0.698780000000     0.996960000000    -0.0322503  
C219     C      0.665980000000     0.615970000000     0.981520000000    -0.00687211 
C220     C      0.611630000000     0.669340000000     0.981860000000    -0.00694024 
C221     C      0.723480000000     0.729350000000     0.027820000000    -0.0535072  
C222     C      0.760370000000     0.765410000000     0.961920000000    -0.059901   
C223     C      0.712510000000     0.717800000000     0.988820000000     0.05775    
C224     C      0.694830000000     0.648020000000     0.996740000000    -0.032231   
C225     C      0.771270000000     0.777030000000     0.000910000000     0.0636394  
C226     C      0.790560000000     0.846320000000     0.991780000000    -0.0354355  
C227     C      0.752610000000     0.758760000000     0.033670000000    -0.0563271  
C228     C      0.819710000000     0.878140000000     0.006970000000    -0.0026579  
C229     C      0.872820000000     0.823540000000     0.009510000000    -0.00257728 
C230     C      0.731190000000     0.736060000000     0.956070000000    -0.0527391  
C231     C      0.697860000000     0.345540000000     0.989710000000    -0.0361114  
C232     C      0.794320000000     0.148090000000     0.993070000000    -0.032057   
C233     C      0.877210000000     0.169470000000     0.976570000000    -0.00697716 
C234     C      0.823000000000     0.116000000000     0.977650000000    -0.00689792 
C235     C      0.757190000000     0.235780000000     0.952370000000    -0.0547412  
C236     C      0.736180000000     0.258180000000     0.030180000000    -0.0522885  
C237     C      0.776240000000     0.217620000000     0.984960000000     0.0591652  
C238     C      0.845840000000     0.198960000000     0.992040000000    -0.0319996  
C239     C      0.717040000000     0.276250000000     0.997590000000     0.0574116  
C240     C      0.647220000000     0.293820000000     0.990240000000    -0.0361051  
C241     C      0.727830000000     0.264880000000     0.958490000000    -0.0560097  
C242     C      0.615280000000     0.322650000000     0.005700000000    -0.00126251 
C243     C      0.668580000000     0.377090000000     0.005160000000    -0.00131863 
C244     C      0.765570000000     0.229100000000     0.024060000000    -0.0554106  
C245     C      0.341110000000     0.695750000000     0.002370000000    -0.0241628  
C246     C      0.143160000000     0.791320000000     0.003090000000    -0.0277757  
C247     C      0.166110000000     0.874200000000     0.017670000000    -0.00816834 
C248     C      0.111930000000     0.820910000000     0.018650000000    -0.00821378 
C249     C      0.231780000000     0.753860000000     0.041870000000    -0.0562417  
C250     C      0.252150000000     0.731980000000     0.963750000000    -0.0528372  
C251     C      0.212640000000     0.772420000000     0.009550000000     0.0637967  
C252     C      0.194790000000     0.842190000000     0.002090000000    -0.0277079  
C253     C      0.271350000000     0.713490000000     0.996060000000     0.058016   
C254     C      0.290510000000     0.644030000000     0.003610000000    -0.0241128  
C255     C      0.260910000000     0.724620000000     0.035320000000    -0.053711   
C256     C      0.319490000000     0.612510000000     0.987540000000    -0.012339   
C257     C      0.372810000000     0.667010000000     0.986240000000    -0.0123809  
C258     C      0.223020000000     0.761220000000     0.970290000000    -0.0600328  
C259     C      0.198350000000     0.143330000000     0.990770000000    -0.0323007  
C260     C      0.293670000000     0.341450000000     0.989320000000    -0.0338345  
C261     C      0.376550000000     0.320110000000     0.005890000000    -0.00137838 
C262     C      0.322100000000     0.373440000000     0.005400000000    -0.00192678 
C263     C      0.256610000000     0.253290000000     0.028670000000    -0.0523649  
C264     C      0.236740000000     0.231090000000     0.950500000000    -0.0545494  
C265     C      0.275900000000     0.271740000000     0.996400000000     0.0577462  
C266     C      0.345390000000     0.290800000000     0.989790000000    -0.0359177  
C267     C      0.217440000000     0.212650000000     0.982780000000     0.0592676  
C268     C      0.147570000000     0.195020000000     0.988530000000    -0.0322928  
C269     C      0.227570000000     0.223990000000     0.022060000000    -0.0553266  
C270     C      0.116110000000     0.165850000000     0.972780000000    -0.00682428 
C271     C      0.169310000000     0.111600000000     0.975230000000    -0.00686862 
C272     C      0.265740000000     0.260440000000     0.957120000000    -0.0560677  
C273     C      0.647420000000     0.998470000000     0.695390000000    -0.0315259  
C274     C      0.845250000000     0.986260000000     0.790460000000    -0.0340609  
C275     C      0.823200000000     0.002850000000     0.873260000000    -0.000961733
C276     C      0.877550000000     0.000260000000     0.819630000000    -0.00169826 
C277     C      0.759010000000     0.031150000000     0.753670000000    -0.0522457  
C278     C      0.734080000000     0.954610000000     0.730880000000    -0.0546584  
C279     C      0.776340000000     0.997510000000     0.771670000000     0.0574498  
C280     C      0.793880000000     0.988570000000     0.841270000000    -0.0361199  
C281     C      0.716760000000     0.988240000000     0.712880000000     0.059084   
C282     C      0.697950000000     0.998240000000     0.643680000000    -0.0320337  
C283     C      0.729430000000     0.026690000000     0.724520000000    -0.0553537  
C284     C      0.668300000000     0.984150000000     0.611890000000    -0.00691783 
C285     C      0.614930000000     0.984380000000     0.666490000000    -0.00905387 
C286     C      0.763620000000     0.959060000000     0.760080000000    -0.0560936  
C287     C      0.198240000000     0.992190000000     0.845530000000    -0.0321632  
C288     C      0.293400000000     0.989730000000     0.647320000000    -0.0336807  
C289     C      0.376160000000     0.007070000000     0.668510000000    -0.00249615 
C290     C      0.321790000000     0.005560000000     0.615160000000    -0.0030988  
C291     C      0.265430000000     0.958290000000     0.728490000000    -0.0560001  
C292     C      0.227290000000     0.023430000000     0.764650000000    -0.055356   
C293     C      0.275530000000     0.997530000000     0.716930000000     0.0574554  
C294     C      0.345070000000     0.991140000000     0.697980000000    -0.0357982  
C295     C      0.217140000000     0.984190000000     0.776170000000     0.0591474  
C296     C      0.147340000000     0.990290000000     0.794030000000    -0.0320866  
C297     C      0.236450000000     0.951820000000     0.757880000000    -0.0546262  
C298     C      0.115890000000     0.974480000000     0.823170000000    -0.00685782 
C299     C      0.169310000000     0.976540000000     0.877310000000    -0.00684398 
C300     C      0.256270000000     0.029900000000     0.735260000000    -0.0522138  
C301     C      0.341600000000     0.995570000000     0.293380000000    -0.0322579  
C302     C      0.143830000000     0.995970000000     0.198100000000    -0.0357902  
C303     C      0.166830000000     0.010450000000     0.115220000000    -0.00216901 
C304     C      0.112630000000     0.011770000000     0.168670000000    -0.00226813 
C305     C      0.232350000000     0.034750000000     0.235350000000    -0.0562611  
C306     C      0.252780000000     0.956630000000     0.257270000000    -0.0527456  
C307     C      0.213280000000     0.002380000000     0.216840000000     0.0639762  
C308     C      0.195360000000     0.994670000000     0.147210000000    -0.0357256  
C309     C      0.271930000000     0.989000000000     0.275690000000     0.0579458  
C310     C      0.290900000000     0.996540000000     0.345100000000    -0.0322291  
C311     C      0.261450000000     0.028260000000     0.264570000000    -0.0534442  
C312     C      0.320000000000     0.980730000000     0.376570000000    -0.00665126 
C313     C      0.373310000000     0.979740000000     0.322200000000    -0.00672368 
C314     C      0.223660000000     0.963120000000     0.228060000000    -0.0599993  
C315     C      0.643990000000     0.993680000000     0.290650000000    -0.0357427  
C316     C      0.841310000000     0.006750000000     0.195290000000    -0.0239071  
C317     C      0.820430000000     0.991450000000     0.111930000000    -0.0123457  
C318     C      0.873940000000     0.992770000000     0.166540000000    -0.0124044  
C319     C      0.759380000000     0.034060000000     0.224720000000    -0.0537131  
C320     C      0.725650000000     0.966180000000     0.260240000000    -0.0599526  
C321     C      0.772190000000     0.995690000000     0.212950000000     0.058159   
C322     C      0.790740000000     0.005530000000     0.143680000000    -0.0238618  
C323     C      0.712940000000     0.004550000000     0.272100000000     0.0638988  
C324     C      0.695350000000     0.994570000000     0.341570000000    -0.0357588  
C325     C      0.729990000000     0.038310000000     0.254080000000    -0.0562387  
C326     C      0.666050000000     0.008400000000     0.373780000000    -0.00216335 
C327     C      0.611840000000     0.007480000000     0.320050000000    -0.00235789 
C328     C      0.755070000000     0.961930000000     0.230890000000    -0.0528654  
C329     C      0.996160000000     0.334750000000     0.690100000000    -0.0317518  
C330     C      0.996590000000     0.136720000000     0.785760000000    -0.0347869  
C331     C      0.013360000000     0.161980000000     0.867540000000    -0.0033225  
C332     C      0.012280000000     0.106070000000     0.815960000000    -0.0035754  
C333     C      0.036020000000     0.224500000000     0.745650000000    -0.0557656  
C334     C      0.957880000000     0.245440000000     0.724620000000    -0.0530786  
C335     C      0.003810000000     0.205680000000     0.764690000000     0.0631238  
C336     C      0.997490000000     0.189900000000     0.835000000000    -0.034733   
C337     C      0.990090000000     0.264480000000     0.705810000000     0.0583334  
C338     C      0.997510000000     0.285720000000     0.636810000000    -0.031764   
C339     C      0.029370000000     0.253670000000     0.716440000000    -0.0540442  
C340     C      0.981550000000     0.315800000000     0.606210000000    -0.00695615 
C341     C      0.980010000000     0.367300000000     0.662340000000    -0.00690365 
C342     C      0.964540000000     0.216280000000     0.753840000000    -0.0592277  
C343     C      0.990290000000     0.834560000000     0.799650000000    -0.0348059  
C344     C      0.993060000000     0.636840000000     0.704160000000    -0.031908   
C345     C      0.977630000000     0.662120000000     0.622110000000    -0.00675605 
C346     C      0.978030000000     0.606140000000     0.673750000000    -0.00694702 
C347     C      0.952300000000     0.724170000000     0.743530000000    -0.0546117  
C348     C      0.029920000000     0.745670000000     0.765890000000    -0.0528649  
C349     C      0.984990000000     0.705660000000     0.725040000000     0.0595439  
C350     C      0.992780000000     0.690040000000     0.654930000000    -0.0318458  
C351     C      0.997240000000     0.764420000000     0.784120000000     0.0582735  
C352     C      0.988500000000     0.785540000000     0.852900000000    -0.0331096  
C353     C      0.958230000000     0.753340000000     0.772850000000    -0.0562609  
C354     C      0.003870000000     0.815630000000     0.883720000000    -0.00282605 
C355     C      0.005840000000     0.867220000000     0.827540000000    -0.00223293 
C356     C      0.024000000000     0.716500000000     0.736570000000    -0.0556608  
C357     C      0.995500000000     0.704160000000     0.353090000000    -0.0347963  
C358     C      0.997260000000     0.799810000000     0.155010000000    -0.0316325  
C359     C      0.983270000000     0.883850000000     0.173890000000    -0.00707291 
C360     C      0.981470000000     0.827690000000     0.122370000000    -0.00710545 
C361     C      0.958180000000     0.765530000000     0.244020000000    -0.0531162  
C362     C      0.035990000000     0.743940000000     0.265580000000    -0.0558057  
C363     C      0.990660000000     0.784120000000     0.225230000000     0.0582732  
C364     C      0.998840000000     0.853070000000     0.204010000000    -0.0316476  
C365     C      0.003510000000     0.725140000000     0.284170000000     0.0630207  
C366     C      0.996680000000     0.654860000000     0.300010000000    -0.0347108  
C367     C      0.964400000000     0.736260000000     0.273240000000    -0.0592453  
C368     C      0.012210000000     0.622260000000     0.328070000000    -0.00336507 
C369     C      0.010810000000     0.673950000000     0.383930000000    -0.00354898 
C370     C      0.029770000000     0.773180000000     0.236330000000    -0.0540857  
C371     C      0.993890000000     0.299910000000     0.334900000000    -0.0317991  
C372     C      0.990410000000     0.204370000000     0.136940000000    -0.0348335  
C373     C      0.005210000000     0.122170000000     0.162250000000    -0.00235638 
C374     C      0.005500000000     0.173960000000     0.106220000000    -0.00250291 
C375     C      0.959630000000     0.237170000000     0.216640000000    -0.05621    
C376     C      0.025720000000     0.272680000000     0.253670000000    -0.0556014  
C377     C      0.998520000000     0.225210000000     0.205830000000     0.0580478  
C378     C      0.990010000000     0.155150000000     0.190000000000    -0.0348574  
C379     C      0.986830000000     0.284400000000     0.264720000000     0.0593724  
C380     C      0.996270000000     0.353150000000     0.285870000000    -0.0318118  
C381     C      0.953980000000     0.266540000000     0.245860000000    -0.0545321  
C382     C      0.981370000000     0.384170000000     0.316050000000    -0.0071368  
C383     C      0.978770000000     0.328070000000     0.367570000000    -0.00705657 
C384     C      0.031370000000     0.243320000000     0.224450000000    -0.0527678  
H1       H      0.936480000000     0.941530000000     0.053600000000     0.210584   
H2       H      0.052310000000     0.054460000000     0.049210000000     0.209504   
H3       H      0.939470000000     0.050260000000     0.933820000000     0.209149   
H4       H      0.052010000000     0.933910000000     0.941390000000     0.209306   
H5       H      0.938450000000     0.556350000000     0.439990000000     0.207892   
H6       H      0.051580000000     0.439700000000     0.435690000000     0.206365   
H7       H      0.935540000000     0.436100000000     0.548460000000     0.211437   
H8       H      0.050900000000     0.548660000000     0.556570000000     0.208113   
H9       H      0.437450000000     0.936300000000     0.437740000000     0.209773   
H10      H      0.549800000000     0.052300000000     0.435980000000     0.210354   
H11      H      0.552100000000     0.937840000000     0.551350000000     0.208055   
H12      H      0.436990000000     0.052490000000     0.551430000000     0.20803    
H13      H      0.551580000000     0.438140000000     0.936200000000     0.206756   
H14      H      0.438600000000     0.436410000000     0.052360000000     0.209623   
H15      H      0.436210000000     0.551960000000     0.938560000000     0.209307   
H16      H      0.551660000000     0.552520000000     0.052310000000     0.206872   
H17      H      0.551480000000     0.209720000000     0.275850000000     0.0400469  
H18      H      0.505110000000     0.260900000000     0.136220000000     0.033729   
H19      H      0.505710000000     0.350000000000     0.226410000000     0.0335548  
H20      H      0.444100000000     0.109560000000     0.315280000000     0.0384514  
H21      H      0.543610000000     0.315560000000     0.109190000000     0.0381977  
H22      H      0.482830000000     0.226560000000     0.349520000000     0.0335131  
H23      H      0.482570000000     0.136320000000     0.260470000000     0.0337245  
H24      H      0.491350000000     0.174540000000     0.402770000000     0.038208   
H25      H      0.497200000000     0.403300000000     0.174450000000     0.038193   
H26      H      0.563700000000     0.261010000000     0.224690000000     0.043922   
H27      H      0.496490000000     0.313640000000     0.083660000000     0.0384894  
H28      H      0.424400000000     0.225520000000     0.261270000000     0.0437721  
H29      H      0.461570000000     0.291920000000     0.143300000000     0.0361615  
H30      H      0.491020000000     0.083690000000     0.313160000000     0.0384404  
H31      H      0.544080000000     0.377390000000     0.171850000000     0.03803    
H32      H      0.526420000000     0.195490000000     0.342950000000     0.0361265  
H33      H      0.526250000000     0.143140000000     0.291320000000     0.0361741  
H34      H      0.436620000000     0.276800000000     0.210110000000     0.040007   
H35      H      0.461940000000     0.343630000000     0.195590000000     0.0360962  
H36      H      0.444320000000     0.172220000000     0.377140000000     0.0378524  
H37      H      0.564670000000     0.762180000000     0.264530000000     0.0436517  
H38      H      0.484250000000     0.726450000000     0.139930000000     0.0335023  
H39      H      0.486010000000     0.636160000000     0.228900000000     0.0333962  
H40      H      0.543200000000     0.878070000000     0.317180000000     0.0382729  
H41      H      0.446530000000     0.671660000000     0.112310000000     0.0383373  
H42      H      0.505920000000     0.761020000000     0.352950000000     0.0334783  
H43      H      0.505260000000     0.850040000000     0.262680000000     0.033416   
H44      H      0.496440000000     0.813660000000     0.405440000000     0.0381653  
H45      H      0.495290000000     0.583770000000     0.176050000000     0.0378868  
H46      H      0.553310000000     0.710690000000     0.213390000000     0.0396635  
H47      H      0.493500000000     0.674580000000     0.086620000000     0.0381295  
H48      H      0.437340000000     0.775790000000     0.279140000000     0.0399637  
H49      H      0.528360000000     0.696090000000     0.146290000000     0.0358386  
H50      H      0.495910000000     0.903240000000     0.314590000000     0.0379843  
H51      H      0.447770000000     0.608560000000     0.174450000000     0.0382238  
H52      H      0.461940000000     0.791410000000     0.345810000000     0.0360302  
H53      H      0.461580000000     0.843050000000     0.293520000000     0.035988   
H54      H      0.425980000000     0.724270000000     0.228050000000     0.0436427  
H55      H      0.529380000000     0.643820000000     0.197780000000     0.0357191  
H56      H      0.543580000000     0.816190000000     0.380010000000     0.0379032  
H57      H      0.435130000000     0.714370000000     0.778230000000     0.0398934  
H58      H      0.485200000000     0.853140000000     0.728230000000     0.0333282  
H59      H      0.485640000000     0.762850000000     0.639280000000     0.0334285  
H60      H      0.539310000000     0.673670000000     0.881360000000     0.0382027  
H61      H      0.448190000000     0.880950000000     0.673130000000     0.0383143  
H62      H      0.502710000000     0.639610000000     0.763130000000     0.0335381  
H63      H      0.502230000000     0.728660000000     0.853330000000     0.0333994  
H64      H      0.492050000000     0.586520000000     0.815090000000     0.0380335  
H65      H      0.496130000000     0.814860000000     0.586190000000     0.0378859  
H66      H      0.425080000000     0.765680000000     0.726630000000     0.0435564  
H67      H      0.495780000000     0.905520000000     0.675470000000     0.0377748  
H68      H      0.562790000000     0.726880000000     0.765750000000     0.0438587  
H69      H      0.529240000000     0.845490000000     0.698090000000     0.0357473  
H70      H      0.491590000000     0.675900000000     0.905670000000     0.0378509  
H71      H      0.448450000000     0.817380000000     0.610550000000     0.0383133  
H72      H      0.458640000000     0.646870000000     0.793310000000     0.0359202  
H73      H      0.458360000000     0.698330000000     0.845460000000     0.0358191  
H74      H      0.552740000000     0.778200000000     0.714170000000     0.0398023  
H75      H      0.529480000000     0.793350000000     0.646670000000     0.0357692  
H76      H      0.539630000000     0.611040000000     0.817910000000     0.0382339  
H77      H      0.436310000000     0.212860000000     0.711420000000     0.0398213  
H78      H      0.486070000000     0.262700000000     0.849730000000     0.0333709  
H79      H      0.484090000000     0.353060000000     0.760850000000     0.033392   
H80      H      0.542820000000     0.112100000000     0.670690000000     0.0384931  
H81      H      0.448170000000     0.316730000000     0.878500000000     0.0381761  
H82      H      0.502720000000     0.228790000000     0.635940000000     0.0334075  
H83      H      0.505600000000     0.139540000000     0.725920000000     0.0335317  
H84      H      0.492850000000     0.176000000000     0.583530000000     0.0378709  
H85      H      0.493860000000     0.405560000000     0.813550000000     0.0378449  
H86      H      0.425470000000     0.264060000000     0.762960000000     0.0436079  
H87      H      0.495890000000     0.314780000000     0.902830000000     0.0377413  
H88      H      0.563750000000     0.228310000000     0.722940000000     0.0435224  
H89      H      0.529470000000     0.293810000000     0.842260000000     0.0356796  
H90      H      0.495910000000     0.086350000000     0.673980000000     0.0383281  
H91      H      0.446750000000     0.380090000000     0.816170000000     0.0382416  
H92      H      0.459490000000     0.197590000000     0.644020000000     0.0358163  
H93      H      0.461190000000     0.145910000000     0.696040000000     0.0359356  
H94      H      0.552900000000     0.279490000000     0.774510000000     0.0396021  
H95      H      0.528320000000     0.346090000000     0.790870000000     0.0356446  
H96      H      0.540700000000     0.174530000000     0.607650000000     0.0382412  
H97      H      0.711550000000     0.215920000000     0.549200000000     0.0401853  
H98      H      0.848360000000     0.263820000000     0.494420000000     0.0334979  
H99      H      0.759590000000     0.354170000000     0.494860000000     0.0334505  
H100     H      0.670740000000     0.110070000000     0.447900000000     0.0359134  
H101     H      0.878360000000     0.318050000000     0.530500000000     0.0362281  
H102     H      0.635300000000     0.228810000000     0.482960000000     0.0333978  
H103     H      0.725530000000     0.139890000000     0.483560000000     0.0335934  
H104     H      0.583250000000     0.176160000000     0.495550000000     0.0385625  
H105     H      0.812570000000     0.406260000000     0.482430000000     0.038607   
H106     H      0.762910000000     0.267780000000     0.557130000000     0.0438051  
H107     H      0.901160000000     0.315950000000     0.482020000000     0.0385584  
H108     H      0.721020000000     0.226140000000     0.420970000000     0.0436483  
H109     H      0.840270000000     0.293940000000     0.450420000000     0.0364427  
H110     H      0.673670000000     0.087040000000     0.496250000000     0.0391296  
H111     H      0.814450000000     0.383190000000     0.530790000000     0.0362145  
H112     H      0.643750000000     0.199420000000     0.527390000000     0.0366741  
H113     H      0.695760000000     0.148180000000     0.527740000000     0.036812   
H114     H      0.772330000000     0.278070000000     0.428900000000     0.040038   
H115     H      0.789300000000     0.345790000000     0.450660000000     0.0364228  
H116     H      0.606720000000     0.173250000000     0.447410000000     0.0360774  
H117     H      0.727790000000     0.765090000000     0.427450000000     0.043626   
H118     H      0.763010000000     0.640390000000     0.507450000000     0.0334824  
H119     H      0.853140000000     0.729470000000     0.508370000000     0.0333235  
H120     H      0.610860000000     0.816790000000     0.448400000000     0.0378775  
H121     H      0.817300000000     0.612530000000     0.545790000000     0.0382717  
H122     H      0.727910000000     0.853370000000     0.485480000000     0.0333387  
H123     H      0.639180000000     0.762910000000     0.486960000000     0.0334608  
H124     H      0.675120000000     0.905870000000     0.494210000000     0.0378088  
H125     H      0.905710000000     0.676770000000     0.499370000000     0.037775   
H126     H      0.779430000000     0.714240000000     0.439300000000     0.0397696  
H127     H      0.814930000000     0.587210000000     0.498550000000     0.0381981  
H128     H      0.712850000000     0.779560000000     0.554740000000     0.0397954  
H129     H      0.794040000000     0.647280000000     0.463880000000     0.0359005  
H130     H      0.585920000000     0.814950000000     0.495840000000     0.038014   
H131     H      0.879990000000     0.674350000000     0.546380000000     0.0377551  
H132     H      0.697420000000     0.846630000000     0.529450000000     0.0358191  
H133     H      0.646060000000     0.794260000000     0.530320000000     0.0358235  
H134     H      0.764370000000     0.728590000000     0.566590000000     0.0436593  
H135     H      0.846280000000     0.698980000000     0.464400000000     0.0357945  
H136     H      0.672930000000     0.879960000000     0.447270000000     0.0384286  
H137     H      0.211300000000     0.275610000000     0.432670000000     0.0396822  
H138     H      0.348710000000     0.226310000000     0.484280000000     0.0334392  
H139     H      0.260190000000     0.135670000000     0.482660000000     0.0336855  
H140     H      0.169700000000     0.377090000000     0.538520000000     0.038365   
H141     H      0.378010000000     0.171930000000     0.447280000000     0.0381095  
H142     H      0.134880000000     0.260320000000     0.497480000000     0.033613   
H143     H      0.225050000000     0.349190000000     0.502080000000     0.0334195  
H144     H      0.082930000000     0.313540000000     0.486590000000     0.0379682  
H145     H      0.312940000000     0.083460000000     0.493600000000     0.0383211  
H146     H      0.262950000000     0.224330000000     0.422890000000     0.0436873  
H147     H      0.401830000000     0.174490000000     0.495260000000     0.0378519  
H148     H      0.221020000000     0.261030000000     0.560460000000     0.0438008  
H149     H      0.340950000000     0.195710000000     0.528030000000     0.0358413  
H150     H      0.173390000000     0.402570000000     0.491480000000     0.0377897  
H151     H      0.315820000000     0.108270000000     0.446130000000     0.038775   
H152     H      0.143850000000     0.291670000000     0.454510000000     0.0356071  
H153     H      0.195820000000     0.342980000000     0.457200000000     0.0356082  
H154     H      0.272750000000     0.209850000000     0.550690000000     0.0398553  
H155     H      0.289800000000     0.143280000000     0.527080000000     0.0358927  
H156     H      0.105770000000     0.314250000000     0.535100000000     0.0387785  
H157     H      0.263870000000     0.762340000000     0.431440000000     0.0436906  
H158     H      0.139810000000     0.725830000000     0.512350000000     0.0335128  
H159     H      0.228420000000     0.635300000000     0.508830000000     0.0333956  
H160     H      0.315940000000     0.878280000000     0.453720000000     0.0357849  
H161     H      0.112390000000     0.670510000000     0.549540000000     0.0357279  
H162     H      0.352540000000     0.760470000000     0.490020000000     0.0333983  
H163     H      0.262410000000     0.849470000000     0.492120000000     0.0334416  
H164     H      0.405060000000     0.813310000000     0.499480000000     0.0385792  
H165     H      0.175410000000     0.583180000000     0.499170000000     0.0387691  
H166     H      0.212800000000     0.710750000000     0.442500000000     0.0403375  
H167     H      0.086320000000     0.674300000000     0.502810000000     0.0390012  
H168     H      0.279230000000     0.774470000000     0.558930000000     0.0400332  
H169     H      0.145790000000     0.696070000000     0.467750000000     0.0371433  
H170     H      0.314650000000     0.902560000000     0.501530000000     0.0387714  
H171     H      0.174070000000     0.607400000000     0.547030000000     0.0355971  
H172     H      0.345800000000     0.790780000000     0.534130000000     0.0366195  
H173     H      0.293810000000     0.842130000000     0.535330000000     0.036741   
H174     H      0.228200000000     0.722830000000     0.569990000000     0.0434277  
H175     H      0.197130000000     0.643640000000     0.465700000000     0.0369991  
H176     H      0.379710000000     0.815340000000     0.452260000000     0.0359805  
H177     H      0.764540000000     0.567390000000     0.261820000000     0.0432761  
H178     H      0.640100000000     0.486840000000     0.226200000000     0.0334808  
H179     H      0.728570000000     0.488720000000     0.135550000000     0.0335937  
H180     H      0.816930000000     0.545670000000     0.377720000000     0.0354329  
H181     H      0.612060000000     0.449190000000     0.171590000000     0.0382019  
H182     H      0.853410000000     0.509190000000     0.260510000000     0.0333782  
H183     H      0.763060000000     0.507210000000     0.349300000000     0.0333771  
H184     H      0.905860000000     0.499870000000     0.313370000000     0.0386748  
H185     H      0.675470000000     0.498070000000     0.083420000000     0.0381703  
H186     H      0.713270000000     0.556010000000     0.210500000000     0.0396118  
H187     H      0.586600000000     0.496310000000     0.174480000000     0.0378801  
H188     H      0.779950000000     0.439940000000     0.274650000000     0.0402525  
H189     H      0.646340000000     0.531020000000     0.195880000000     0.0357035  
H190     H      0.814950000000     0.498150000000     0.402540000000     0.0388023  
H191     H      0.674120000000     0.450430000000     0.108060000000     0.0383775  
H192     H      0.846610000000     0.464990000000     0.290700000000     0.0369367  
H193     H      0.794370000000     0.463880000000     0.342150000000     0.0370271  
H194     H      0.728650000000     0.428560000000     0.223350000000     0.043938   
H195     H      0.697500000000     0.532100000000     0.143400000000     0.035745   
H196     H      0.880170000000     0.546910000000     0.315770000000     0.0356019  
H197     H      0.212840000000     0.439300000000     0.279100000000     0.0396449  
H198     H      0.262820000000     0.488730000000     0.140950000000     0.0336339  
H199     H      0.353340000000     0.486790000000     0.229530000000     0.0333942  
H200     H      0.112880000000     0.546720000000     0.319990000000     0.0380679  
H201     H      0.316400000000     0.450440000000     0.111990000000     0.0359379  
H202     H      0.228750000000     0.505180000000     0.354930000000     0.033435   
H203     H      0.140130000000     0.509640000000     0.264510000000     0.0336249  
H204     H      0.175640000000     0.495370000000     0.407010000000     0.0378497  
H205     H      0.405640000000     0.496250000000     0.176510000000     0.0386828  
H206     H      0.263950000000     0.428220000000     0.227560000000     0.0434728  
H207     H      0.314780000000     0.498210000000     0.087640000000     0.0391823  
H208     H      0.229080000000     0.566790000000     0.267840000000     0.0437767  
H209     H      0.294110000000     0.532050000000     0.148170000000     0.0369781  
H210     H      0.086610000000     0.500110000000     0.316050000000     0.0382317  
H211     H      0.380220000000     0.449070000000     0.174430000000     0.0359079  
H212     H      0.197270000000     0.462240000000     0.346350000000     0.035696   
H213     H      0.145900000000     0.464850000000     0.294020000000     0.0358759  
H214     H      0.280130000000     0.555710000000     0.216210000000     0.040176   
H215     H      0.346420000000     0.530920000000     0.199300000000     0.0367461  
H216     H      0.174680000000     0.543450000000     0.383210000000     0.0382497  
H217     H      0.274950000000     0.430860000000     0.779130000000     0.040146   
H218     H      0.134590000000     0.477680000000     0.729420000000     0.0335733  
H219     H      0.224770000000     0.479320000000     0.640420000000     0.0334899  
H220     H      0.313380000000     0.536310000000     0.881970000000     0.0356856  
H221     H      0.107750000000     0.440240000000     0.673920000000     0.0382889  
H222     H      0.347870000000     0.500400000000     0.763510000000     0.0333954  
H223     H      0.259480000000     0.497580000000     0.854210000000     0.0334087  
H224     H      0.401470000000     0.491300000000     0.815270000000     0.0386151  
H225     H      0.172910000000     0.488650000000     0.587300000000     0.0382973  
H226     H      0.223630000000     0.419450000000     0.727870000000     0.0437559  
H227     H      0.082050000000     0.487250000000     0.676810000000     0.0380905  
H228     H      0.259290000000     0.558290000000     0.766490000000     0.0435039  
H229     H      0.141510000000     0.521950000000     0.699380000000     0.0359459  
H230     H      0.312800000000     0.488490000000     0.906270000000     0.0387965  
H231     H      0.170370000000     0.441240000000     0.612290000000     0.0379173  
H232     H      0.342010000000     0.456180000000     0.793850000000     0.0367383  
H233     H      0.291000000000     0.454560000000     0.846220000000     0.0367665  
H234     H      0.208010000000     0.546900000000     0.715210000000     0.0397937  
H235     H      0.193790000000     0.522880000000     0.647680000000     0.0359943  
H236     H      0.375760000000     0.538300000000     0.817950000000     0.0359018  
H237     H      0.759150000000     0.425940000000     0.722600000000     0.0435376  
H238     H      0.634630000000     0.505560000000     0.760480000000     0.0334939  
H239     H      0.725140000000     0.504760000000     0.849140000000     0.0333601  
H240     H      0.812860000000     0.449140000000     0.606760000000     0.0358344  
H241     H      0.607560000000     0.543030000000     0.815740000000     0.0380365  
H242     H      0.847360000000     0.483090000000     0.725630000000     0.0333653  
H243     H      0.759020000000     0.487730000000     0.634940000000     0.0334738  
H244     H      0.901040000000     0.492380000000     0.674170000000     0.0388015  
H245     H      0.673400000000     0.495110000000     0.902470000000     0.037746   
H246     H      0.708230000000     0.437040000000     0.774300000000     0.0395924  
H247     H      0.582390000000     0.495720000000     0.813360000000     0.0379339  
H248     H      0.774530000000     0.553460000000     0.710400000000     0.0403142  
H249     H      0.641950000000     0.461480000000     0.790720000000     0.0356952  
H250     H      0.812370000000     0.497250000000     0.583020000000     0.0389219  
H251     H      0.670830000000     0.542590000000     0.877600000000     0.0381185  
H252     H      0.841830000000     0.527800000000     0.695940000000     0.0369665  
H253     H      0.790740000000     0.530500000000     0.643520000000     0.0368399  
H254     H      0.723470000000     0.564570000000     0.761980000000     0.0439137  
H255     H      0.694350000000     0.461030000000     0.842090000000     0.0356862  
H256     H      0.874760000000     0.445750000000     0.670480000000     0.0358561  
H257     H      0.723120000000     0.727400000000     0.925920000000     0.0433209  
H258     H      0.848230000000     0.764060000000     0.005530000000     0.0356568  
H259     H      0.759870000000     0.854760000000     0.001500000000     0.035664   
H260     H      0.670810000000     0.611850000000     0.948870000000     0.0381433  
H261     H      0.876270000000     0.819200000000     0.042310000000     0.0351481  
H262     H      0.635060000000     0.729280000000     0.986350000000     0.0335956  
H263     H      0.725420000000     0.640480000000     0.986010000000     0.0335911  
H264     H      0.582900000000     0.676350000000     0.997030000000     0.0373138  
H265     H      0.813210000000     0.906620000000     0.991040000000     0.0367107  
H266     H      0.774430000000     0.778940000000     0.936100000000     0.0405823  
H267     H      0.901800000000     0.815580000000     0.995290000000     0.0366825  
H268     H      0.709610000000     0.715630000000     0.053650000000     0.0390618  
H269     H      0.842150000000     0.793590000000     0.960810000000     0.0376819  
H270     H      0.673620000000     0.587220000000     0.996440000000     0.0372354  
H271     H      0.813980000000     0.883310000000     0.039330000000     0.0349853  
H272     H      0.642950000000     0.698980000000     0.030280000000     0.0371904  
H273     H      0.695150000000     0.647620000000     0.030050000000     0.037268   
H274     H      0.760770000000     0.767330000000     0.063820000000     0.0440944  
H275     H      0.791140000000     0.845950000000     0.958470000000     0.0375556  
H276     H      0.607160000000     0.674260000000     0.949260000000     0.0380294  
H277     H      0.779830000000     0.215540000000     0.049750000000     0.0400652  
H278     H      0.728420000000     0.353720000000     0.000050000000     0.0359588  
H279     H      0.639800000000     0.263170000000     0.000980000000     0.0360718  
H280     H      0.880950000000     0.174060000000     0.943840000000     0.0356565  
H281     H      0.673770000000     0.381460000000     0.037730000000     0.0373275  
H282     H      0.763590000000     0.140380000000     0.982890000000     0.0337359  
H283     H      0.853730000000     0.229410000000     0.981080000000     0.0334351  
H284     H      0.815600000000     0.087340000000     0.992840000000     0.0387054  
H285     H      0.586490000000     0.315050000000     0.990910000000     0.0355854  
H286     H      0.728190000000     0.266650000000     0.060400000000     0.0435731  
H287     H      0.675440000000     0.405910000000     0.990020000000     0.035482   
H288     H      0.765100000000     0.227230000000     0.922150000000     0.0434096  
H289     H      0.697770000000     0.345860000000     0.956390000000     0.0367498  
H290     H      0.906230000000     0.176700000000     0.991080000000     0.0380763  
H291     H      0.611330000000     0.317700000000     0.038360000000     0.0373258  
H292     H      0.794550000000     0.147910000000     0.026390000000     0.0386141  
H293     H      0.846680000000     0.199410000000     0.025350000000     0.0383771  
H294     H      0.713520000000     0.278400000000     0.932800000000     0.0392609  
H295     H      0.646560000000     0.293550000000     0.956930000000     0.0367705  
H296     H      0.817710000000     0.111690000000     0.945090000000     0.035602   
H297     H      0.208720000000     0.775110000000     0.944800000000     0.0405307  
H298     H      0.348360000000     0.726440000000     0.991640000000     0.0311174  
H299     H      0.259760000000     0.635910000000     0.993820000000     0.0312557  
H300     H      0.171080000000     0.878000000000     0.050340000000     0.0381347  
H301     H      0.376290000000     0.672180000000     0.953560000000     0.0368212  
H302     H      0.135230000000     0.760910000000     0.014120000000     0.0334999  
H303     H      0.225530000000     0.849820000000     0.012320000000     0.0332494  
H304     H      0.082750000000     0.813530000000     0.004540000000     0.0390045  
H305     H      0.312980000000     0.583690000000     0.002830000000     0.0412593  
H306     H      0.259900000000     0.723720000000     0.933400000000     0.0430385  
H307     H      0.401810000000     0.674480000000     0.000670000000     0.0409631  
H308     H      0.224110000000     0.762210000000     0.072210000000     0.044147   
H309     H      0.342310000000     0.695880000000     0.035670000000     0.0358309  
H310     H      0.173770000000     0.903030000000     0.002960000000     0.0387848  
H311     H      0.313620000000     0.608120000000     0.955100000000     0.0367118  
H312     H      0.142170000000     0.790860000000     0.969780000000     0.0345652  
H313     H      0.194560000000     0.842540000000     0.968770000000     0.0344983  
H314     H      0.275300000000     0.710790000000     0.060810000000     0.0395715  
H315     H      0.291210000000     0.643640000000     0.036920000000     0.0359105  
H316     H      0.108580000000     0.816610000000     0.051460000000     0.0383955  
H317     H      0.280150000000     0.274300000000     0.931670000000     0.0398805  
H318     H      0.229070000000     0.135070000000     0.980990000000     0.0337804  
H319     H      0.140320000000     0.225460000000     0.977120000000     0.0338026  
H320     H      0.380270000000     0.314890000000     0.038530000000     0.0349238  
H321     H      0.174710000000     0.107190000000     0.942700000000     0.0382257  
H322     H      0.262840000000     0.348860000000     0.999450000000     0.0338372  
H323     H      0.353350000000     0.260200000000     0.000250000000     0.035995   
H324     H      0.314780000000     0.402260000000     0.990490000000     0.036865   
H325     H      0.086870000000     0.173940000000     0.986340000000     0.0379946  
H326     H      0.229160000000     0.222720000000     0.920140000000     0.04375    
H327     H      0.176180000000     0.082850000000     0.990510000000     0.0378791  
H328     H      0.264100000000     0.261750000000     0.059030000000     0.0433067  
H329     H      0.197710000000     0.143350000000     0.024080000000     0.0376945  
H330     H      0.405640000000     0.313280000000     0.991310000000     0.0364448  
H331     H      0.113350000000     0.169850000000     0.939870000000     0.0378849  
H332     H      0.294070000000     0.342110000000     0.956010000000     0.0376633  
H333     H      0.346370000000     0.290950000000     0.956480000000     0.0378694  
H334     H      0.213020000000     0.210280000000     0.047520000000     0.039921   
H335     H      0.146140000000     0.195790000000     0.021810000000     0.0378289  
H336     H      0.316510000000     0.377340000000     0.037960000000     0.035049   
H337     H      0.776440000000     0.932600000000     0.773620000000     0.0395681  
H338     H      0.639710000000     0.987600000000     0.725920000000     0.0332229  
H339     H      0.728230000000     0.987230000000     0.635350000000     0.0334939  
H340     H      0.819040000000     0.035560000000     0.877780000000     0.0349324  
H341     H      0.609630000000     0.951890000000     0.671360000000     0.0361569  
H342     H      0.853680000000     0.996310000000     0.759860000000     0.0337147  
H343     H      0.763660000000     0.000280000000     0.848840000000     0.0359388  
H344     H      0.905470000000     0.983440000000     0.813030000000     0.0362902  
H345     H      0.675340000000     0.999910000000     0.583450000000     0.0381023  
H346     H      0.724560000000     0.924870000000     0.722240000000     0.0433298  
H347     H      0.586750000000     0.000330000000     0.674060000000     0.0402657  
H348     H      0.768460000000     0.060890000000     0.762390000000     0.0432229  
H349     H      0.647880000000     0.031790000000     0.696080000000     0.0379583  
H350     H      0.815420000000     0.987790000000     0.901890000000     0.0363267  
H351     H      0.672900000000     0.951610000000     0.606630000000     0.0356057  
H352     H      0.844140000000     0.952950000000     0.790470000000     0.0371653  
H353     H      0.792470000000     0.955260000000     0.841660000000     0.0376044  
H354     H      0.716460000000     0.053160000000     0.711120000000     0.0399582  
H355     H      0.698760000000     0.031560000000     0.643950000000     0.0382018  
H356     H      0.883780000000     0.032470000000     0.814030000000     0.0351107  
H357     H      0.263750000000     0.060220000000     0.726650000000     0.0432181  
H358     H      0.228990000000     0.982370000000     0.853650000000     0.0334369  
H359     H      0.139970000000     0.979100000000     0.763540000000     0.0337374  
H360     H      0.379650000000     0.039820000000     0.673310000000     0.0349333  
H361     H      0.174850000000     0.944030000000     0.881730000000     0.0353885  
H362     H      0.262530000000     0.999600000000     0.639760000000     0.0337748  
H363     H      0.352940000000     0.002030000000     0.728450000000     0.0358875  
H364     H      0.314580000000     0.990240000000     0.586530000000     0.0368381  
H365     H      0.086710000000     0.988360000000     0.815350000000     0.038715   
H366     H      0.212780000000     0.048950000000     0.778280000000     0.0402443  
H367     H      0.176170000000     0.991860000000     0.906030000000     0.0380406  
H368     H      0.279860000000     0.932760000000     0.714780000000     0.0397635  
H369     H      0.197630000000     0.025520000000     0.845600000000     0.0385815  
H370     H      0.405330000000     0.992770000000     0.675560000000     0.036572   
H371     H      0.112840000000     0.941630000000     0.818820000000     0.0355271  
H372     H      0.293990000000     0.956410000000     0.647060000000     0.0375419  
H373     H      0.346250000000     0.957830000000     0.698260000000     0.0377665  
H374     H      0.228910000000     0.921490000000     0.766430000000     0.0434702  
H375     H      0.146030000000     0.023600000000     0.793460000000     0.0387931  
H376     H      0.316010000000     0.038050000000     0.610840000000     0.0351173  
H377     H      0.209350000000     0.937600000000     0.214200000000     0.0407519  
H378     H      0.348940000000     0.984750000000     0.262750000000     0.0336428  
H379     H      0.260240000000     0.986460000000     0.353200000000     0.0336734  
H380     H      0.172310000000     0.043020000000     0.111120000000     0.0349989  
H381     H      0.376770000000     0.947000000000     0.317370000000     0.0355648  
H382     H      0.136030000000     0.006950000000     0.228560000000     0.0359349  
H383     H      0.226180000000     0.004630000000     0.139560000000     0.0359136  
H384     H      0.083480000000     0.997530000000     0.175910000000     0.0367658  
H385     H      0.313160000000     0.995760000000     0.405450000000     0.0383653  
H386     H      0.260560000000     0.926290000000     0.265560000000     0.0431104  
H387     H      0.402300000000     0.994100000000     0.314540000000     0.0381628  
H388     H      0.224640000000     0.065090000000     0.226980000000     0.044215   
H389     H      0.342630000000     0.028880000000     0.293150000000     0.0386203  
H390     H      0.174160000000     0.995370000000     0.086490000000     0.0367318  
H391     H      0.314640000000     0.948150000000     0.380720000000     0.0355633  
H392     H      0.142720000000     0.962660000000     0.198470000000     0.0379492  
H393     H      0.194830000000     0.961340000000     0.146910000000     0.0378632  
H394     H      0.275800000000     0.053780000000     0.278390000000     0.0397067  
H395     H      0.291330000000     0.029870000000     0.345490000000     0.038605   
H396     H      0.109200000000     0.044540000000     0.173280000000     0.0348577  
H397     H      0.764650000000     0.932260000000     0.222100000000     0.0433302  
H398     H      0.635680000000     0.004420000000     0.260230000000     0.0358268  
H399     H      0.725630000000     0.005950000000     0.349400000000     0.0358172  
H400     H      0.815880000000     0.958900000000     0.106670000000     0.0373126  
H401     H      0.606200000000     0.039920000000     0.315290000000     0.0352551  
H402     H      0.849170000000     0.996320000000     0.225930000000     0.0310753  
H403     H      0.760540000000     0.994180000000     0.135510000000     0.031266   
H404     H      0.901850000000     0.009360000000     0.173740000000     0.0408716  
H405     H      0.673780000000     0.992840000000     0.402160000000     0.0366939  
H406     H      0.712930000000     0.939620000000     0.273690000000     0.0407626  
H407     H      0.583690000000     0.991290000000     0.312900000000     0.0364998  
H408     H      0.772140000000     0.060610000000     0.211300000000     0.0394535  
H409     H      0.644770000000     0.960360000000     0.290020000000     0.0376004  
H410     H      0.813420000000     0.007180000000     0.083450000000     0.041409   
H411     H      0.670300000000     0.041020000000     0.378840000000     0.0349911  
H412     H      0.840450000000     0.040070000000     0.195610000000     0.0354829  
H413     H      0.789610000000     0.038840000000     0.143730000000     0.0355668  
H414     H      0.720470000000     0.067980000000     0.262940000000     0.0441513  
H415     H      0.696540000000     0.961260000000     0.341360000000     0.0376247  
H416     H      0.879890000000     0.960480000000     0.171990000000     0.0370332  
H417     H      0.939120000000     0.202320000000     0.768190000000     0.0404296  
H418     H      0.985370000000     0.341050000000     0.720970000000     0.0336136  
H419     H      0.987670000000     0.255230000000     0.627720000000     0.0337031  
H420     H      0.046120000000     0.166710000000     0.870580000000     0.0372496  
H421     H      0.947290000000     0.370330000000     0.667360000000     0.0357404  
H422     H      0.006790000000     0.127690000000     0.755380000000     0.0356017  
H423     H      0.008280000000     0.220740000000     0.841470000000     0.0353733  
H424     H      0.997370000000     0.076950000000     0.809930000000     0.0363941  
H425     H      0.996770000000     0.310150000000     0.577180000000     0.0383889  
H426     H      0.927530000000     0.253540000000     0.716830000000     0.043281   
H427     H      0.994110000000     0.396170000000     0.670970000000     0.0384625  
H428     H      0.066380000000     0.216740000000     0.753780000000     0.0442666  
H429     H      0.029430000000     0.336030000000     0.690310000000     0.0383588  
H430     H      0.999310000000     0.170720000000     0.896380000000     0.0364866  
H431     H      0.949100000000     0.310200000000     0.601690000000     0.0358165  
H432     H      0.963300000000     0.136270000000     0.786060000000     0.036765   
H433     H      0.964210000000     0.190160000000     0.836060000000     0.0368575  
H434     H      0.054780000000     0.268030000000     0.702470000000     0.0398671  
H435     H      0.030800000000     0.286370000000     0.636460000000     0.0381638  
H436     H      0.044850000000     0.101850000000     0.810890000000     0.0378411  
H437     H      0.049760000000     0.702740000000     0.722650000000     0.0396846  
H438     H      0.001420000000     0.840910000000     0.768900000000     0.0354334  
H439     H      0.998330000000     0.755080000000     0.862110000000     0.0335321  
H440     H      0.944940000000     0.666830000000     0.618340000000     0.0380233  
H441     H      0.038560000000     0.870650000000     0.822780000000     0.034849   
H442     H      0.982400000000     0.627770000000     0.734370000000     0.0335247  
H443     H      0.981990000000     0.720850000000     0.648300000000     0.0335924  
H444     H      0.993080000000     0.577130000000     0.679960000000     0.0372545  
H445     H      0.988120000000     0.810020000000     0.912470000000     0.0367258  
H446     H      0.060070000000     0.754000000000     0.774220000000     0.0432254  
H447     H      0.991460000000     0.895940000000     0.818860000000     0.0368899  
H448     H      0.922150000000     0.716180000000     0.734860000000     0.0436589  
H449     H      0.957010000000     0.835590000000     0.799020000000     0.0376876  
H450     H      0.992310000000     0.670830000000     0.593570000000     0.0377912  
H451     H      0.036240000000     0.810060000000     0.888850000000     0.0351049  
H452     H      0.026350000000     0.636580000000     0.704400000000     0.0370167  
H453     H      0.026070000000     0.690410000000     0.654500000000     0.0372455  
H454     H      0.932480000000     0.767490000000     0.786390000000     0.0397439  
H455     H      0.955210000000     0.786050000000     0.852740000000     0.0371444  
H456     H      0.945420000000     0.601660000000     0.678340000000     0.0382427  
H457     H      0.055390000000     0.786950000000     0.222160000000     0.0396996  
H458     H      0.005720000000     0.734530000000     0.362160000000     0.035339   
H459     H      0.007670000000     0.648310000000     0.269260000000     0.0354708  
H460     H      0.950870000000     0.888770000000     0.179450000000     0.0356289  
H461     H      0.043340000000     0.679020000000     0.388550000000     0.0375185  
H462     H      0.986280000000     0.769010000000     0.148660000000     0.0337144  
H463     H      0.988970000000     0.862250000000     0.234460000000     0.0334583  
H464     H      0.995750000000     0.819030000000     0.093610000000     0.0386956  
H465     H      0.998000000000     0.593480000000     0.319330000000     0.0364781  
H466     H      0.066230000000     0.735600000000     0.273570000000     0.0442018  
H467     H      0.995560000000     0.679990000000     0.412860000000     0.0359769  
H468     H      0.927940000000     0.773530000000     0.235700000000     0.0432008  
H469     H      0.962210000000     0.703970000000     0.353220000000     0.0364494  
H470     H      0.998820000000     0.912720000000     0.179520000000     0.0382005  
H471     H      0.044970000000     0.618980000000     0.323500000000     0.0373289  
H472     H      0.030540000000     0.799340000000     0.153900000000     0.0382285  
H473     H      0.032130000000     0.853130000000     0.203490000000     0.037942   
H474     H      0.938780000000     0.722090000000     0.287010000000     0.040221   
H475     H      0.963400000000     0.653950000000     0.299500000000     0.0367429  
H476     H      0.948750000000     0.822820000000     0.119100000000     0.0359588  
H477     H      0.061440000000     0.234330000000     0.216520000000     0.0432418  
H478     H      0.982340000000     0.269320000000     0.341280000000     0.0336121  
H479     H      0.986450000000     0.362500000000     0.255460000000     0.0335663  
H480     H      0.037730000000     0.117840000000     0.167630000000     0.0350934  
H481     H      0.945970000000     0.323880000000     0.370930000000     0.0383183  
H482     H      0.001200000000     0.234590000000     0.127980000000     0.0356004  
H483     H      0.000400000000     0.148420000000     0.220910000000     0.0356601  
H484     H      0.990310000000     0.180010000000     0.077260000000     0.0370127  
H485     H      0.997350000000     0.412780000000     0.310300000000     0.0372794  
H486     H      0.051600000000     0.285910000000     0.267880000000     0.0395875  
H487     H      0.992940000000     0.319110000000     0.396300000000     0.037473   
H488     H      0.933750000000     0.223570000000     0.202800000000     0.0398207  
H489     H      0.027150000000     0.298800000000     0.335900000000     0.0370687  
H490     H      0.989910000000     0.093820000000     0.170550000000     0.0372401  
H491     H      0.949020000000     0.389590000000     0.310670000000     0.0382386  
H492     H      0.957120000000     0.204750000000     0.136530000000     0.0375971  
H493     H      0.956710000000     0.154990000000     0.190030000000     0.0378271  
H494     H      0.923910000000     0.275200000000     0.254130000000     0.0436367  
H495     H      0.029560000000     0.352600000000     0.286270000000     0.0368619  
H496     H      0.038060000000     0.178780000000     0.101570000000     0.0353944  
N1       N      0.504550000000     0.362870000000     0.124640000000    -0.16646    
N2       N      0.509820000000     0.302790000000     0.183920000000    -0.11378    
N3       N      0.478280000000     0.184050000000     0.302350000000    -0.113815   
N4       N      0.483470000000     0.124750000000     0.362410000000    -0.166614   
N5       N      0.486310000000     0.624700000000     0.126950000000    -0.166984   
N6       N      0.480550000000     0.683770000000     0.187010000000    -0.113879   
N7       N      0.510090000000     0.802990000000     0.305260000000    -0.113875   
N8       N      0.503920000000     0.862950000000     0.364400000000    -0.166901   
N9       N      0.487410000000     0.864680000000     0.626250000000    -0.166573   
N10      N      0.480680000000     0.805510000000     0.686230000000    -0.113811   
N11      N      0.507190000000     0.686660000000     0.805780000000    -0.113724   
N12      N      0.500290000000     0.626650000000     0.864920000000    -0.166496   
N13      N      0.486550000000     0.364520000000     0.862810000000    -0.166832   
N14      N      0.480430000000     0.305330000000     0.802780000000    -0.113841   
N15      N      0.508790000000     0.186780000000     0.683380000000    -0.113824   
N16      N      0.502580000000     0.126810000000     0.624140000000    -0.166602   
N17      N      0.861530000000     0.365670000000     0.492350000000    -0.166719   
N18      N      0.801700000000     0.306760000000     0.499860000000    -0.113767   
N19      N      0.682730000000     0.186660000000     0.478250000000    -0.11388    
N20      N      0.623860000000     0.126860000000     0.486900000000    -0.166712   
N21      N      0.864700000000     0.627500000000     0.506680000000    -0.166616   
N22      N      0.805470000000     0.687550000000     0.512350000000    -0.113846   
N23      N      0.686120000000     0.805530000000     0.481680000000    -0.11381    
N24      N      0.626010000000     0.864720000000     0.486850000000    -0.166638   
N25      N      0.362080000000     0.124530000000     0.486070000000    -0.166598   
N26      N      0.301990000000     0.183470000000     0.478750000000    -0.113765   
N27      N      0.182270000000     0.302170000000     0.504630000000    -0.113737   
N28      N      0.123410000000     0.362380000000     0.498000000000    -0.166564   
N29      N      0.126510000000     0.624150000000     0.508860000000    -0.166683   
N30      N      0.186780000000     0.682990000000     0.515140000000    -0.113997   
N31      N      0.304940000000     0.802520000000     0.486280000000    -0.113886   
N32      N      0.364150000000     0.862490000000     0.491500000000    -0.166684   
N33      N      0.626610000000     0.488830000000     0.124470000000    -0.166451   
N34      N      0.687000000000     0.483180000000     0.183360000000    -0.113727   
N35      N      0.805630000000     0.512770000000     0.302360000000    -0.11399    
N36      N      0.864750000000     0.507150000000     0.362510000000    -0.16657    
N37      N      0.364520000000     0.488470000000     0.127470000000    -0.166299   
N38      N      0.305520000000     0.483050000000     0.187770000000    -0.113865   
N39      N      0.187150000000     0.511960000000     0.307270000000    -0.113784   
N40      N      0.126800000000     0.505780000000     0.366200000000    -0.166441   
N41      N      0.123080000000     0.480410000000     0.627490000000    -0.166538   
N42      N      0.182320000000     0.474060000000     0.687510000000    -0.11382    
N43      N      0.301020000000     0.503710000000     0.806430000000    -0.11389    
N44      N      0.361480000000     0.498770000000     0.865260000000    -0.166474   
N45      N      0.623500000000     0.503450000000     0.862470000000    -0.166693   
N46      N      0.682440000000     0.509720000000     0.802250000000    -0.113779   
N47      N      0.800500000000     0.480760000000     0.682650000000    -0.1139     
N48      N      0.860980000000     0.486400000000     0.623980000000    -0.166519   
N49      N      0.861890000000     0.865780000000     0.001940000000    -0.166389   
N50      N      0.801410000000     0.807060000000     0.008290000000    -0.112      
N51      N      0.682720000000     0.687410000000     0.981470000000    -0.11294    
N52      N      0.623730000000     0.627220000000     0.988210000000    -0.166831   
N53      N      0.626470000000     0.364970000000     0.999110000000    -0.169077   
N54      N      0.686670000000     0.305970000000     0.005230000000    -0.11042    
N55      N      0.806110000000     0.187400000000     0.977320000000    -0.113353   
N56      N      0.865310000000     0.127420000000     0.983640000000    -0.166776   
N57      N      0.361730000000     0.624620000000     0.992690000000    -0.165695   
N58      N      0.301440000000     0.683610000000     0.987970000000    -0.115748   
N59      N      0.183010000000     0.802780000000     0.017610000000    -0.114659   
N60      N      0.123880000000     0.862850000000     0.011060000000    -0.166144   
N61      N      0.127210000000     0.123790000000     0.981010000000    -0.166864   
N62      N      0.187400000000     0.182750000000     0.974650000000    -0.113243   
N63      N      0.305580000000     0.301980000000     0.004550000000    -0.110854   
N64      N      0.364510000000     0.362260000000     0.999640000000    -0.169027   
N65      N      0.626280000000     0.990620000000     0.624150000000    -0.166748   
N66      N      0.686290000000     0.982310000000     0.682910000000    -0.113362   
N67      N      0.806510000000     0.003460000000     0.801940000000    -0.110638   
N68      N      0.865320000000     0.995450000000     0.861910000000    -0.169085   
N69      N      0.127130000000     0.982140000000     0.865290000000    -0.166856   
N70      N      0.187130000000     0.976190000000     0.806130000000    -0.113358   
N71      N      0.305180000000     0.005520000000     0.686600000000    -0.110863   
N72      N      0.364220000000     0.000190000000     0.626440000000    -0.16656    
N73      N      0.362120000000     0.986660000000     0.364450000000    -0.167214   
N74      N      0.302000000000     0.980970000000     0.305540000000    -0.113126   
N75      N      0.183670000000     0.010400000000     0.186530000000    -0.112005   
N76      N      0.124520000000     0.004600000000     0.126650000000    -0.16784    
N77      N      0.623960000000     0.001310000000     0.362180000000    -0.166664   
N78      N      0.682880000000     0.010270000000     0.302490000000    -0.111922   
N79      N      0.802660000000     0.989970000000     0.182970000000    -0.115718   
N80      N      0.862460000000     0.998000000000     0.124100000000    -0.165413   
N81      N      0.986900000000     0.357630000000     0.619700000000    -0.166625   
N82      N      0.981890000000     0.295380000000     0.676740000000    -0.113176   
N83      N      0.011990000000     0.176700000000     0.795670000000    -0.112224   
N84      N      0.006100000000     0.119430000000     0.857690000000    -0.167165   
N85      N      0.998740000000     0.857460000000     0.870130000000    -0.168833   
N86      N      0.004700000000     0.795360000000     0.813270000000    -0.111407   
N87      N      0.977570000000     0.676690000000     0.693930000000    -0.113337   
N88      N      0.984710000000     0.619580000000     0.632110000000    -0.167221   
N89      N      0.004820000000     0.632170000000     0.370570000000    -0.167389   
N90      N      0.011250000000     0.694150000000     0.313280000000    -0.112208   
N91      N      0.982900000000     0.813280000000     0.194290000000    -0.113195   
N92      N      0.988480000000     0.870330000000     0.132060000000    -0.166428   
N93      N      0.986630000000     0.370540000000     0.357840000000    -0.166891   
N94      N      0.979650000000     0.313660000000     0.295670000000    -0.113308   
N95      N      0.005670000000     0.194030000000     0.176820000000    -0.111156   
N96      N      0.999200000000     0.132210000000     0.119550000000    -0.168472   
O1       O      0.996680000000     0.111640000000     0.054290000000    -0.378194   
O2       O      0.991550000000     0.884920000000     0.065300000000    -0.375909   
O3       O      0.928570000000     0.000420000000     0.107060000000    -0.375055   
O4       O      0.058760000000     0.000390000000     0.108540000000    -0.375989   
O5       O      0.107470000000     0.998820000000     0.060720000000    -0.380184   
O6       O      0.880840000000     0.998710000000     0.058240000000    -0.376435   
O7       O      0.992710000000     0.935460000000     0.111260000000    -0.376229   
O8       O      0.995040000000     0.065580000000     0.104720000000    -0.377658   
O9       O      0.034320000000     0.955930000000     0.037540000000    -0.50358    
O10      O      0.954200000000     0.038120000000     0.032860000000    -0.503428   
O11      O      0.953560000000     0.957180000000     0.036370000000    -0.652319   
O12      O      0.035490000000     0.037020000000     0.033490000000    -0.648573   
O13      O      0.995210000000     0.878200000000     0.935230000000    -0.37971    
O14      O      0.999800000000     0.104880000000     0.924200000000    -0.377015   
O15      O      0.880560000000     0.931400000000     0.996440000000    -0.37685    
O16      O      0.107100000000     0.928640000000     0.002760000000    -0.37637    
O17      O      0.108860000000     0.058340000000     0.988890000000    -0.376102   
O18      O      0.882340000000     0.061450000000     0.989800000000    -0.376945   
O19      O      0.931080000000     0.991660000000     0.880320000000    -0.379506   
O20      O      0.061130000000     0.987270000000     0.882190000000    -0.376046   
O21      O      0.882350000000     0.994180000000     0.928100000000    -0.378161   
O22      O      0.108910000000     0.988420000000     0.930950000000    -0.378099   
O23      O      0.928130000000     0.882490000000     0.999460000000    -0.377428   
O24      O      0.931120000000     0.109190000000     0.987620000000    -0.379223   
O25      O      0.061210000000     0.107200000000     0.986910000000    -0.3758     
O26      O      0.058280000000     0.880940000000     0.004340000000    -0.375123   
O27      O      0.995750000000     0.924180000000     0.884700000000    -0.378611   
O28      O      0.000430000000     0.054340000000     0.878230000000    -0.374176   
O29      O      0.035960000000     0.032680000000     0.952910000000    -0.50374    
O30      O      0.954070000000     0.952750000000     0.955450000000    -0.505225   
O31      O      0.955450000000     0.034040000000     0.951590000000    -0.6512     
O32      O      0.035270000000     0.951780000000     0.956690000000    -0.650771   
O33      O      0.990810000000     0.385060000000     0.424530000000    -0.379572   
O34      O      0.999010000000     0.611660000000     0.435680000000    -0.379128   
O35      O      0.930500000000     0.502900000000     0.380900000000    -0.37732    
O36      O      0.060660000000     0.501340000000     0.382860000000    -0.376316   
O37      O      0.108270000000     0.499130000000     0.431770000000    -0.377655   
O38      O      0.881600000000     0.500810000000     0.428500000000    -0.379429   
O39      O      0.999170000000     0.565590000000     0.385230000000    -0.377578   
O40      O      0.992170000000     0.435570000000     0.378550000000    -0.378316   
O41      O      0.035350000000     0.536820000000     0.457400000000    -0.507545   
O42      O      0.953580000000     0.457080000000     0.452120000000    -0.507265   
O43      O      0.954520000000     0.538400000000     0.455920000000    -0.650576   
O44      O      0.034890000000     0.455790000000     0.452920000000    -0.648555   
O45      O      0.990980000000     0.604980000000     0.565670000000    -0.377041   
O46      O      0.991000000000     0.378420000000     0.554600000000    -0.375455   
O47      O      0.881670000000     0.561570000000     0.499990000000    -0.377368   
O48      O      0.108110000000     0.558620000000     0.501800000000    -0.377917   
O49      O      0.106500000000     0.428610000000     0.495720000000    -0.377637   
O50      O      0.879910000000     0.431550000000     0.491130000000    -0.377469   
O51      O      0.927190000000     0.489320000000     0.607370000000    -0.376496   
O52      O      0.057400000000     0.486440000000     0.609350000000    -0.378005   
O53      O      0.879670000000     0.492450000000     0.558450000000    -0.376033   
O54      O      0.106220000000     0.487930000000     0.561660000000    -0.375722   
O55      O      0.930420000000     0.609350000000     0.501470000000    -0.377213   
O56      O      0.927630000000     0.382690000000     0.490320000000    -0.376953   
O57      O      0.057750000000     0.380860000000     0.493110000000    -0.377715   
O58      O      0.060440000000     0.607470000000     0.503710000000    -0.377921   
O59      O      0.990030000000     0.554500000000     0.611670000000    -0.379292   
O60      O      0.990600000000     0.424370000000     0.605140000000    -0.376993   
O61      O      0.033260000000     0.452260000000     0.534080000000    -0.506623   
O62      O      0.953620000000     0.533930000000     0.536870000000    -0.506759   
O63      O      0.952630000000     0.453350000000     0.532850000000    -0.652311   
O64      O      0.034490000000     0.533190000000     0.538530000000    -0.648961   
O65      O      0.606800000000     0.996910000000     0.428200000000    -0.376604   
O66      O      0.380350000000     0.991670000000     0.430130000000    -0.376818   
O67      O      0.497990000000     0.928900000000     0.381460000000    -0.377831   
O68      O      0.488880000000     0.058970000000     0.380430000000    -0.376526   
O69      O      0.489590000000     0.107640000000     0.428340000000    -0.375981   
O70      O      0.497970000000     0.880930000000     0.430080000000    -0.376774   
O71      O      0.428170000000     0.990930000000     0.381400000000    -0.379271   
O72      O      0.558200000000     0.996900000000     0.380240000000    -0.378618   
O73      O      0.453080000000     0.034420000000     0.453910000000    -0.505925   
O74      O      0.534430000000     0.954440000000     0.453840000000    -0.50708    
O75      O      0.453750000000     0.953460000000     0.454290000000    -0.651653   
O76      O      0.533770000000     0.035400000000     0.453040000000    -0.651146   
O77      O      0.381310000000     0.995730000000     0.560340000000    -0.379175   
O78      O      0.607980000000     0.994570000000     0.558380000000    -0.37951    
O79      O      0.430000000000     0.880670000000     0.493570000000    -0.378487   
O80      O      0.428060000000     0.107620000000     0.491800000000    -0.377792   
O81      O      0.558110000000     0.108720000000     0.490770000000    -0.3787     
O82      O      0.560080000000     0.881800000000     0.492720000000    -0.377685   
O83      O      0.491810000000     0.930520000000     0.608100000000    -0.376638   
O84      O      0.498230000000     0.060730000000     0.606990000000    -0.376301   
O85      O      0.492520000000     0.881800000000     0.560210000000    -0.379001   
O86      O      0.496530000000     0.108750000000     0.558430000000    -0.379114   
O87      O      0.381370000000     0.928590000000     0.495190000000    -0.377422   
O88      O      0.607790000000     0.930580000000     0.490400000000    -0.376777   
O89      O      0.606790000000     0.060840000000     0.492160000000    -0.376696   
O90      O      0.380350000000     0.058780000000     0.490910000000    -0.376054   
O91      O      0.430010000000     0.997270000000     0.608190000000    -0.378062   
O92      O      0.560150000000     0.993830000000     0.607130000000    -0.378045   
O93      O      0.534610000000     0.035960000000     0.534120000000    -0.506309   
O94      O      0.454290000000     0.954170000000     0.535420000000    -0.507638   
O95      O      0.535350000000     0.954600000000     0.534840000000    -0.651395   
O96      O      0.453500000000     0.035500000000     0.534920000000    -0.650075   
O97      O      0.381490000000     0.428440000000     0.996120000000    -0.377831   
O98      O      0.608120000000     0.430770000000     0.995180000000    -0.377975   
O99      O      0.491910000000     0.381690000000     0.928820000000    -0.379151   
O100     O      0.498800000000     0.380930000000     0.058920000000    -0.374702   
O101     O      0.498890000000     0.428880000000     0.107570000000    -0.375819   
O102     O      0.490850000000     0.430360000000     0.880910000000    -0.379423   
O103     O      0.560370000000     0.381960000000     0.995160000000    -0.377781   
O104     O      0.430260000000     0.380630000000     0.996410000000    -0.37874    
O105     O      0.535030000000     0.454710000000     0.034240000000    -0.50755    
O106     O      0.453460000000     0.454040000000     0.954430000000    -0.507489   
O107     O      0.534970000000     0.454550000000     0.953200000000    -0.649041   
O108     O      0.454640000000     0.453500000000     0.035500000000    -0.649795   
O109     O      0.606760000000     0.561050000000     0.992280000000    -0.377456   
O110     O      0.380140000000     0.558810000000     0.996010000000    -0.37747    
O111     O      0.557870000000     0.498000000000     0.880770000000    -0.377252   
O112     O      0.560460000000     0.492840000000     0.107600000000    -0.376979   
O113     O      0.430300000000     0.491600000000     0.109060000000    -0.377594   
O114     O      0.427710000000     0.496660000000     0.882140000000    -0.377808   
O115     O      0.495550000000     0.608550000000     0.930710000000    -0.375589   
O116     O      0.490850000000     0.607650000000     0.060900000000    -0.378922   
O117     O      0.495500000000     0.560590000000     0.882060000000    -0.375542   
O118     O      0.491880000000     0.558990000000     0.108820000000    -0.379649   
O119     O      0.606640000000     0.498350000000     0.928550000000    -0.377452   
O120     O      0.380020000000     0.494650000000     0.930980000000    -0.37684    
O121     O      0.381490000000     0.492750000000     0.061310000000    -0.375847   
O122     O      0.608170000000     0.493480000000     0.058760000000    -0.376376   
O123     O      0.558050000000     0.608900000000     0.993330000000    -0.37727    
O124     O      0.427920000000     0.607590000000     0.994580000000    -0.378313   
O125     O      0.453590000000     0.534620000000     0.036190000000    -0.506349   
O126     O      0.533310000000     0.535510000000     0.954640000000    -0.50863    
O127     O      0.452930000000     0.535180000000     0.955080000000    -0.650807   
O128     O      0.535030000000     0.535770000000     0.035660000000    -0.647918   
Zr1      Zr     0.994030000000     0.998970000000     0.075080000000     1.41967    
Zr2      Zr     0.993710000000     0.914360000000     0.998590000000     1.42003    
Zr3      Zr     0.995760000000     0.075520000000     0.990800000000     1.42138    
Zr4      Zr     0.914380000000     0.996040000000     0.993540000000     1.41942    
Zr5      Zr     0.075340000000     0.993880000000     0.995520000000     1.4219     
Zr6      Zr     0.995730000000     0.990870000000     0.914110000000     1.42058    
Zr7      Zr     0.995100000000     0.498970000000     0.414630000000     1.42052    
Zr8      Zr     0.995030000000     0.575630000000     0.499140000000     1.42346    
Zr9      Zr     0.993110000000     0.414570000000     0.491160000000     1.42365    
Zr10     Zr     0.913510000000     0.496250000000     0.493930000000     1.42715    
Zr11     Zr     0.074490000000     0.494090000000     0.496310000000     1.42405    
Zr12     Zr     0.992820000000     0.491090000000     0.575720000000     1.42626    
Zr13     Zr     0.493450000000     0.994160000000     0.413610000000     1.42703    
Zr14     Zr     0.413620000000     0.994000000000     0.494930000000     1.42337    
Zr15     Zr     0.574560000000     0.995440000000     0.493570000000     1.42396    
Zr16     Zr     0.494780000000     0.914110000000     0.494860000000     1.42676    
Zr17     Zr     0.493380000000     0.075380000000     0.493640000000     1.42671    
Zr18     Zr     0.494790000000     0.995370000000     0.574800000000     1.42041    
Zr19     Zr     0.494960000000     0.414120000000     0.994070000000     1.42332    
Zr20     Zr     0.574650000000     0.495560000000     0.994020000000     1.4235     
Zr21     Zr     0.413600000000     0.493960000000     0.995760000000     1.42216    
Zr22     Zr     0.493210000000     0.495170000000     0.914260000000     1.42561    
Zr23     Zr     0.495010000000     0.494260000000     0.075470000000     1.42588    
Zr24     Zr     0.493340000000     0.575360000000     0.995610000000     1.42338    


