data_structure

_audit_creation_method RASPA-1.0
_audit_creation_date 2023-5-25
_audit_author_name 'Poobodin Mano'

_cell_length_a    33.3683
_cell_length_b    33.5031
_cell_length_c    33.461
_cell_angle_alpha 90
_cell_angle_beta  90
_cell_angle_gamma 90
_cell_volume      37407.4

_symmetry_cell_setting          triclinic
_symmetry_space_group_name_Hall 'P 1'
_symmetry_space_group_name_H-M  'P 1'
_symmetry_Int_Tables_number     1

_symmetry_equiv_pos_as_xyz 'x,y,z'

loop_
_atom_site_label
_atom_site_type_symbol
_atom_site_fract_x
_atom_site_fract_y
_atom_site_fract_z
_atom_site_charge
C1       C      0.974880000000     0.089050000000     0.083520000000     0.400072   
C2       C      0.979120000000     0.885220000000     0.089670000000     0.398645   
C3       C      0.877650000000     0.984160000000     0.080750000000     0.402021   
C4       C      0.081880000000     0.985050000000     0.092830000000     0.390939   
C5       C      0.994250000000     0.879620000000     0.886420000000     0.399578   
C6       C      0.994950000000     0.083310000000     0.880140000000     0.390619   
C7       C      0.884270000000     0.881820000000     0.978280000000     0.39716    
C8       C      0.088410000000     0.883640000000     0.996860000000     0.389703   
C9       C      0.086890000000     0.087540000000     0.984390000000     0.400519   
C10      C      0.882560000000     0.085480000000     0.974400000000     0.390042   
C11      C      0.890000000000     0.976780000000     0.876800000000     0.394395   
C12      C      0.094390000000     0.981190000000     0.889420000000     0.396345   
C13      C      0.983680000000     0.384660000000     0.379160000000     0.389233   
C14      C      0.988520000000     0.588590000000     0.385570000000     0.389719   
C15      C      0.881480000000     0.488240000000     0.384720000000     0.395332   
C16      C      0.086080000000     0.485150000000     0.379960000000     0.396188   
C17      C      0.989160000000     0.581490000000     0.589500000000     0.392906   
C18      C      0.987110000000     0.378090000000     0.583300000000     0.394505   
C19      C      0.884190000000     0.585880000000     0.487290000000     0.395477   
C20      C      0.088750000000     0.585160000000     0.489030000000     0.394562   
C21      C      0.088080000000     0.381450000000     0.477510000000     0.39652    
C22      C      0.883540000000     0.382010000000     0.484620000000     0.391288   
C23      C      0.886610000000     0.480490000000     0.588840000000     0.395722   
C24      C      0.091360000000     0.474660000000     0.583460000000     0.395921   
C25      C      0.583180000000     0.981790000000     0.378830000000     0.391389   
C26      C      0.378910000000     0.988810000000     0.388080000000     0.401768   
C27      C      0.480030000000     0.880460000000     0.386910000000     0.398153   
C28      C      0.482670000000     0.083910000000     0.380020000000     0.400749   
C29      C      0.388010000000     0.990080000000     0.591730000000     0.390094   
C30      C      0.592360000000     0.992230000000     0.582930000000     0.390417   
C31      C      0.383520000000     0.883150000000     0.489440000000     0.388903   
C32      C      0.384550000000     0.087420000000     0.489270000000     0.391937   
C33      C      0.588780000000     0.085870000000     0.475470000000     0.396954   
C34      C      0.588120000000     0.882610000000     0.487390000000     0.389774   
C35      C      0.485470000000     0.886170000000     0.590520000000     0.39115    
C36      C      0.488510000000     0.089590000000     0.583610000000     0.398675   
C37      C      0.382400000000     0.385320000000     0.979890000000     0.38894    
C38      C      0.586920000000     0.381500000000     0.989420000000     0.400472   
C39      C      0.489720000000     0.386580000000     0.880520000000     0.393259   
C40      C      0.478760000000     0.380490000000     0.083980000000     0.390298   
C41      C      0.590860000000     0.585020000000     0.993290000000     0.391422   
C42      C      0.386390000000     0.589680000000     0.983490000000     0.394268   
C43      C      0.591560000000     0.489790000000     0.886020000000     0.391931   
C44      C      0.584880000000     0.476240000000     0.089980000000     0.392685   
C45      C      0.380790000000     0.490450000000     0.083170000000     0.393055   
C46      C      0.387090000000     0.491410000000     0.879420000000     0.388929   
C47      C      0.495100000000     0.589920000000     0.885910000000     0.399676   
C48      C      0.486660000000     0.583950000000     0.089620000000     0.393101   
C49      C      0.474850000000     0.182820000000     0.328060000000    -0.0318023  
C50      C      0.483110000000     0.279060000000     0.130570000000    -0.0303767  
C51      C      0.466720000000     0.361250000000     0.154230000000    -0.00698322 
C52      C      0.468850000000     0.308940000000     0.099000000000    -0.00657505 
C53      C      0.511620000000     0.247220000000     0.211330000000    -0.0559253  
C54      C      0.444580000000     0.211080000000     0.246230000000    -0.0563815  
C55      C      0.472880000000     0.258860000000     0.199330000000     0.0612     
C56      C      0.481200000000     0.328780000000     0.182960000000    -0.030024   
C57      C      0.483320000000     0.199500000000     0.258250000000     0.0620883  
C58      C      0.473510000000     0.130540000000     0.278420000000    -0.0781351  
C59      C      0.516640000000     0.217770000000     0.240510000000    -0.0524685  
C60      C      0.488820000000     0.098980000000     0.308040000000     0.169304   
C61      C      0.490120000000     0.154520000000     0.360520000000     0.000909153
C62      C      0.439550000000     0.240490000000     0.216980000000    -0.0535342  
C63      C      0.504130000000     0.788800000000     0.330960000000    -0.0329415  
C64      C      0.502400000000     0.681570000000     0.141350000000    -0.0298477  
C65      C      0.472730000000     0.601710000000     0.159360000000    -0.00525917 
C66      C      0.515340000000     0.646460000000     0.115070000000    -0.00810929 
C67      C      0.483890000000     0.689410000000     0.252000000000    -0.0532984  
C68      C      0.479130000000     0.769690000000     0.230460000000    -0.0534575  
C69      C      0.485920000000     0.699630000000     0.211330000000     0.060437   
C70      C      0.458910000000     0.639420000000     0.180790000000    -0.0305562  
C71      C      0.475740000000     0.759070000000     0.271190000000     0.061159   
C72      C      0.460290000000     0.829090000000     0.290000000000    -0.073777   
C73      C      0.477140000000     0.718360000000     0.281140000000    -0.0523127  
C74      C      0.448100000000     0.855210000000     0.325640000000     0.167221   
C75      C      0.491610000000     0.810390000000     0.369050000000     0.00273077 
C76      C      0.482900000000     0.740430000000     0.200970000000    -0.0543215  
C77      C      0.490320000000     0.691070000000     0.839360000000    -0.0353967  
C78      C      0.491250000000     0.787310000000     0.641900000000    -0.0300181  
C79      C      0.478300000000     0.870940000000     0.662410000000    -0.00758354 
C80      C      0.475260000000     0.815820000000     0.609980000000    -0.00752947 
C81      C      0.452700000000     0.752430000000     0.730990000000    -0.0539922  
C82      C      0.530700000000     0.729720000000     0.751440000000    -0.0535561  
C83      C      0.485290000000     0.770620000000     0.711910000000     0.0613049  
C84      C      0.494060000000     0.839590000000     0.691720000000    -0.0300025  
C85      C      0.498100000000     0.711410000000     0.770410000000     0.0608137  
C86      C      0.490470000000     0.641520000000     0.786680000000    -0.0840106  
C87      C      0.458900000000     0.723050000000     0.759980000000    -0.0557552  
C88      C      0.505100000000     0.608580000000     0.815120000000     0.167423   
C89      C      0.505770000000     0.661280000000     0.870390000000    -0.00263977 
C90      C      0.524490000000     0.759080000000     0.722390000000    -0.0563535  
C91      C      0.513640000000     0.181260000000     0.639280000000    -0.0329488  
C92      C      0.507970000000     0.288980000000     0.829660000000    -0.0298938  
C93      C      0.479030000000     0.368760000000     0.810280000000    -0.00540704 
C94      C      0.519560000000     0.324120000000     0.856510000000    -0.00816614 
C95      C      0.493210000000     0.280760000000     0.718400000000    -0.0532422  
C96      C      0.488470000000     0.200540000000     0.740100000000    -0.053378   
C97      C      0.494340000000     0.270700000000     0.759150000000     0.0604551  
C98      C      0.466180000000     0.331020000000     0.788340000000    -0.0304259  
C99      C      0.485590000000     0.211020000000     0.699300000000     0.0613078  
C100     C      0.470500000000     0.140870000000     0.680870000000    -0.0739502  
C101     C      0.487060000000     0.251700000000     0.689240000000    -0.0521934  
C102     C      0.458140000000     0.114510000000     0.645510000000     0.167344   
C103     C      0.500810000000     0.159500000000     0.601390000000     0.00295014 
C104     C      0.491520000000     0.229900000000     0.769550000000    -0.054178   
C105     C      0.688970000000     0.134540000000     0.478580000000    -0.0320349  
C106     C      0.783140000000     0.333070000000     0.477610000000    -0.0295406  
C107     C      0.866330000000     0.310850000000     0.492410000000    -0.0080947  
C108     C      0.812220000000     0.364580000000     0.493480000000    -0.00743056 
C109     C      0.754050000000     0.252750000000     0.445080000000    -0.0563201  
C110     C      0.717940000000     0.214930000000     0.510370000000    -0.0560973  
C111     C      0.765130000000     0.263490000000     0.484230000000     0.0622464  
C112     C      0.834640000000     0.282220000000     0.476300000000    -0.0288946  
C113     C      0.706980000000     0.204070000000     0.471220000000     0.0625511  
C114     C      0.637350000000     0.185460000000     0.478370000000    -0.0743189  
C115     C      0.725190000000     0.223230000000     0.438770000000    -0.0524372  
C116     C      0.605810000000     0.156470000000     0.462360000000     0.169689   
C117     C      0.659850000000     0.102790000000     0.463280000000     0.00109876 
C118     C      0.746850000000     0.244400000000     0.516680000000    -0.0537733  
C119     C      0.835260000000     0.686390000000     0.492870000000    -0.0321648  
C120     C      0.637120000000     0.782160000000     0.484940000000    -0.0299224  
C121     C      0.659550000000     0.865610000000     0.495810000000    -0.00743457 
C122     C      0.605380000000     0.811950000000     0.498970000000    -0.00745424 
C123     C      0.718000000000     0.751160000000     0.454980000000    -0.056025   
C124     C      0.754260000000     0.717320000000     0.522360000000    -0.0566713  
C125     C      0.706710000000     0.764040000000     0.493430000000     0.0611171  
C126     C      0.688460000000     0.833030000000     0.481960000000    -0.0298796  
C127     C      0.765660000000     0.704600000000     0.483900000000     0.0625003  
C128     C      0.784040000000     0.635390000000     0.494290000000    -0.0743759  
C129     C      0.747260000000     0.721700000000     0.450410000000    -0.0527263  
C130     C      0.812730000000     0.603190000000     0.478980000000     0.169849   
C131     C      0.867130000000     0.656950000000     0.478360000000     0.000854959
C132     C      0.725030000000     0.746850000000     0.526940000000    -0.0538327  
C133     C      0.137230000000     0.281920000000     0.483730000000    -0.0322377  
C134     C      0.335800000000     0.187220000000     0.482230000000    -0.0292138  
C135     C      0.313840000000     0.105210000000     0.501480000000    -0.00674871 
C136     C      0.367890000000     0.158700000000     0.497950000000    -0.0080441  
C137     C      0.254710000000     0.215440000000     0.451230000000    -0.0561261  
C138     C      0.218520000000     0.254210000000     0.515910000000    -0.0559856  
C139     C      0.266370000000     0.205880000000     0.490530000000     0.0622846  
C140     C      0.284400000000     0.136220000000     0.485470000000    -0.0297937  
C141     C      0.206960000000     0.263840000000     0.476610000000     0.0630234  
C142     C      0.188250000000     0.333380000000     0.482440000000    -0.075106   
C143     C      0.225250000000     0.244250000000     0.444470000000    -0.0522549  
C144     C      0.159150000000     0.364420000000     0.465680000000     0.170047   
C145     C      0.105340000000     0.310430000000     0.467620000000     0.00128752 
C146     C      0.248030000000     0.225440000000     0.522670000000    -0.0532445  
C147     C      0.137590000000     0.685440000000     0.487940000000    -0.0320703  
C148     C      0.334770000000     0.782530000000     0.495000000000    -0.0291336  
C149     C      0.312020000000     0.865720000000     0.482700000000    -0.00742889 
C150     C      0.366450000000     0.812130000000     0.480520000000    -0.00838661 
C151     C      0.254190000000     0.751080000000     0.524790000000    -0.0561781  
C152     C      0.218310000000     0.716550000000     0.457570000000    -0.0560862  
C153     C      0.265340000000     0.763910000000     0.486290000000     0.0617287  
C154     C      0.283240000000     0.833180000000     0.497000000000    -0.0296761  
C155     C      0.207180000000     0.703700000000     0.496080000000     0.0622125  
C156     C      0.188940000000     0.634500000000     0.485030000000    -0.0742907  
C157     C      0.225330000000     0.721210000000     0.529500000000    -0.0523552  
C158     C      0.160150000000     0.601920000000     0.499500000000     0.169498   
C159     C      0.105980000000     0.655610000000     0.502140000000     0.000706263
C160     C      0.247180000000     0.746400000000     0.452860000000    -0.0537634  
C161     C      0.780440000000     0.480110000000     0.338060000000    -0.0312417  
C162     C      0.683760000000     0.479620000000     0.141060000000    -0.0297986  
C163     C      0.600190000000     0.464290000000     0.161330000000    -0.00758374 
C164     C      0.655340000000     0.463760000000     0.108970000000    -0.00754956 
C165     C      0.710890000000     0.512600000000     0.221890000000    -0.0558551  
C166     C      0.750130000000     0.448200000000     0.258000000000    -0.0562733  
C167     C      0.700840000000     0.473290000000     0.210840000000     0.0616832  
C168     C      0.631240000000     0.479940000000     0.191120000000    -0.029992   
C169     C      0.760170000000     0.487510000000     0.269030000000     0.0627647  
C170     C      0.830620000000     0.482620000000     0.285840000000    -0.0740377  
C171     C      0.740300000000     0.519500000000     0.250790000000    -0.0523318  
C172     C      0.862390000000     0.499580000000     0.314200000000     0.169468   
C173     C      0.809560000000     0.496700000000     0.369150000000    -0.000220661
C174     C      0.720660000000     0.441290000000     0.229140000000    -0.0536211  
C175     C      0.185050000000     0.492870000000     0.328260000000    -0.0316751  
C176     C      0.279320000000     0.488330000000     0.129750000000    -0.0302941  
C177     C      0.362180000000     0.502560000000     0.153470000000    -0.00691833 
C178     C      0.309450000000     0.502800000000     0.098520000000    -0.00716498 
C179     C      0.248270000000     0.457790000000     0.210040000000    -0.0557274  
C180     C      0.212630000000     0.523840000000     0.246890000000    -0.0566451  
C181     C      0.259810000000     0.496640000000     0.198830000000     0.0614734  
C182     C      0.329620000000     0.487990000000     0.181990000000    -0.030234   
C183     C      0.201390000000     0.484980000000     0.258330000000     0.0632491  
C184     C      0.132240000000     0.493120000000     0.278740000000    -0.074417   
C185     C      0.219280000000     0.452160000000     0.239580000000    -0.0525514  
C186     C      0.101330000000     0.476720000000     0.308250000000     0.16995    
C187     C      0.157000000000     0.477110000000     0.360720000000     0.000538351
C188     C      0.241670000000     0.529470000000     0.217360000000    -0.0535836  
C189     C      0.142530000000     0.478380000000     0.682160000000    -0.0325615  
C190     C      0.340990000000     0.484310000000     0.778020000000    -0.02966    
C191     C      0.316220000000     0.500680000000     0.859960000000    -0.00834117 
C192     C      0.371610000000     0.501000000000     0.807740000000    -0.0078334  
C193     C      0.261840000000     0.450050000000     0.746990000000    -0.0560059  
C194     C      0.222640000000     0.513720000000     0.709550000000    -0.0558042  
C195     C      0.271480000000     0.489550000000     0.757730000000     0.061666   
C196     C      0.288370000000     0.483800000000     0.827850000000    -0.029085   
C197     C      0.212900000000     0.474220000000     0.698910000000     0.0623432  
C198     C      0.192490000000     0.480930000000     0.629640000000    -0.075376   
C199     C      0.232800000000     0.442600000000     0.717800000000    -0.0522681  
C200     C      0.163260000000     0.464140000000     0.598520000000     0.170604   
C201     C      0.110780000000     0.461770000000     0.653660000000     0.000960573
C202     C      0.251700000000     0.521180000000     0.738710000000    -0.0531001  
C203     C      0.787600000000     0.487820000000     0.640410000000    -0.0320947  
C204     C      0.692770000000     0.483450000000     0.838870000000    -0.0299598  
C205     C      0.610640000000     0.502290000000     0.815830000000    -0.00976754 
C206     C      0.663460000000     0.498660000000     0.870590000000    -0.00765419 
C207     C      0.722590000000     0.453470000000     0.757870000000    -0.0560705  
C208     C      0.760930000000     0.518720000000     0.722330000000    -0.0562799  
C209     C      0.712590000000     0.492500000000     0.769880000000     0.0616597  
C210     C      0.642400000000     0.486740000000     0.786860000000    -0.0286447  
C211     C      0.770800000000     0.479690000000     0.710230000000     0.062458   
C212     C      0.840280000000     0.486170000000     0.690100000000    -0.0741637  
C213     C      0.751480000000     0.447260000000     0.728300000000    -0.0524603  
C214     C      0.870960000000     0.469790000000     0.660260000000     0.169654   
C215     C      0.815560000000     0.472160000000     0.607760000000     0.000896244
C216     C      0.732040000000     0.524930000000     0.751930000000    -0.0534861  
C217     C      0.785150000000     0.831530000000     0.985200000000    -0.0339119  
C218     C      0.691450000000     0.632690000000     0.988120000000    -0.033756   
C219     C      0.608970000000     0.655440000000     0.005550000000    -0.00133111 
C220     C      0.662310000000     0.601320000000     0.004220000000    -0.00218294 
C221     C      0.720200000000     0.712720000000     0.954980000000    -0.0550582  
C222     C      0.758360000000     0.750870000000     0.018920000000    -0.0552404  
C223     C      0.710390000000     0.702090000000     0.994510000000     0.058407   
C224     C      0.640440000000     0.684240000000     0.989240000000    -0.0356555  
C225     C      0.768010000000     0.761590000000     0.979390000000     0.0617749  
C226     C      0.837610000000     0.781500000000     0.984420000000    -0.0766215  
C227     C      0.748800000000     0.742250000000     0.947640000000    -0.0526605  
C228     C      0.868110000000     0.810670000000     0.966730000000     0.171268   
C229     C      0.813190000000     0.863400000000     0.968210000000     0.00154119 
C230     C      0.729730000000     0.721330000000     0.026280000000    -0.0511849  
C231     C      0.686440000000     0.331160000000     0.984100000000    -0.0345157  
C232     C      0.781920000000     0.133360000000     0.979520000000    -0.0320806  
C233     C      0.864730000000     0.156390000000     0.963960000000    -0.00664334 
C234     C      0.811260000000     0.102350000000     0.963050000000    -0.00673601 
C235     C      0.752120000000     0.212760000000     0.013650000000    -0.0548404  
C236     C      0.714610000000     0.251360000000     0.949620000000    -0.0559838  
C237     C      0.762880000000     0.202870000000     0.974170000000     0.0595611  
C238     C      0.832900000000     0.184850000000     0.980430000000    -0.0321211  
C239     C      0.703900000000     0.261310000000     0.989100000000     0.0595798  
C240     C      0.634290000000     0.280930000000     0.982350000000    -0.0781805  
C241     C      0.722860000000     0.241740000000     0.020910000000    -0.0511941  
C242     C      0.602750000000     0.309970000000     0.998840000000     0.167421   
C243     C      0.657700000000     0.362730000000     0.000470000000     0.00532847 
C244     C      0.743850000000     0.222370000000     0.942360000000    -0.0540719  
C245     C      0.338230000000     0.689920000000     0.994070000000    -0.0341515  
C246     C      0.138960000000     0.784680000000     0.991850000000    -0.0354895  
C247     C      0.159330000000     0.867140000000     0.010780000000    -0.00257237 
C248     C      0.106380000000     0.812760000000     0.007570000000    -0.00289194 
C249     C      0.221000000000     0.758110000000     0.960500000000    -0.0552875  
C250     C      0.256630000000     0.718340000000     0.024890000000    -0.0548994  
C251     C      0.208830000000     0.767060000000     0.999800000000     0.0584892  
C252     C      0.189450000000     0.836590000000     0.994890000000    -0.0355958  
C253     C      0.268790000000     0.709420000000     0.985590000000     0.0605171  
C254     C      0.286600000000     0.639420000000     0.989380000000    -0.0764098  
C255     C      0.250740000000     0.729540000000     0.953600000000    -0.0520277  
C256     C      0.315670000000     0.608530000000     0.972100000000     0.170079   
C257     C      0.370280000000     0.661500000000     0.977780000000     0.00117644 
C258     C      0.226920000000     0.746970000000     0.031800000000    -0.0518387  
C259     C      0.186980000000     0.138270000000     0.988780000000    -0.0342937  
C260     C      0.281230000000     0.336520000000     0.973180000000    -0.0293553  
C261     C      0.364590000000     0.314420000000     0.987530000000    -0.00934953 
C262     C      0.310730000000     0.368780000000     0.986730000000    -0.00944117 
C263     C      0.250530000000     0.254520000000     0.946510000000    -0.0562835  
C264     C      0.216230000000     0.220650000000     0.014890000000    -0.0546936  
C265     C      0.262720000000     0.267590000000     0.984620000000     0.0596805  
C266     C      0.332160000000     0.285310000000     0.973810000000    -0.0292661  
C267     C      0.204230000000     0.207400000000     0.976780000000     0.0597146  
C268     C      0.134990000000     0.188450000000     0.987060000000    -0.0807852  
C269     C      0.221530000000     0.224650000000     0.942770000000    -0.0527222  
C270     C      0.103160000000     0.158480000000     0.973180000000     0.169808   
C271     C      0.158090000000     0.105310000000     0.975660000000     0.00113376 
C272     C      0.245280000000     0.250470000000     0.018630000000    -0.0526368  
C273     C      0.845330000000     0.983410000000     0.774850000000    -0.0341667  
C274     C      0.645690000000     0.987140000000     0.680630000000    -0.03365    
C275     C      0.664450000000     0.002450000000     0.596950000000    -0.00273665 
C276     C      0.613090000000     0.003630000000     0.653010000000    -0.00279799 
C277     C      0.726890000000     0.952710000000     0.705960000000    -0.05539    
C278     C      0.765570000000     0.016460000000     0.743790000000    -0.0551273  
C279     C      0.716300000000     0.992190000000     0.696080000000     0.0582202  
C280     C      0.694650000000     0.986000000000     0.627180000000    -0.0336703  
C281     C      0.776010000000     0.976970000000     0.753810000000     0.0604956  
C282     C      0.792160000000     0.981440000000     0.824140000000    -0.0764548  
C283     C      0.756510000000     0.945310000000     0.734570000000    -0.052692   
C284     C      0.819940000000     0.964160000000     0.856160000000     0.170327   
C285     C      0.876040000000     0.967030000000     0.804730000000     0.000966893
C286     C      0.735990000000     0.023860000000     0.715130000000    -0.0518645  
C287     C      0.196630000000     0.990520000000     0.844810000000    -0.0344645  
C288     C      0.290360000000     0.985120000000     0.645690000000    -0.0333982  
C289     C      0.374130000000     0.002570000000     0.663110000000    -0.00302163 
C290     C      0.317600000000     0.000070000000     0.612140000000    -0.00239552 
C291     C      0.265930000000     0.954940000000     0.728320000000    -0.0554657  
C292     C      0.227550000000     0.020200000000     0.763810000000    -0.0550541  
C293     C      0.275300000000     0.993950000000     0.715720000000     0.0588968  
C294     C      0.344220000000     0.987430000000     0.694190000000    -0.032944   
C295     C      0.217960000000     0.981180000000     0.776140000000     0.0610294  
C296     C      0.147440000000     0.985810000000     0.791840000000    -0.0765557  
C297     C      0.237480000000     0.948760000000     0.758290000000    -0.0525804  
C298     C      0.115610000000     0.968700000000     0.819840000000     0.170525   
C299     C      0.166970000000     0.974750000000     0.875980000000     0.00203395 
C300     C      0.256050000000     0.026400000000     0.733840000000    -0.0516493  
C301     C      0.276410000000     0.985520000000     0.343400000000    -0.0358581  
C302     C      0.179970000000     0.990040000000     0.146460000000    -0.0319831  
C303     C      0.095490000000     0.977450000000     0.164980000000    -0.00706956 
C304     C      0.151990000000     0.974880000000     0.113700000000    -0.00679938 
C305     C      0.207130000000     0.021440000000     0.227730000000    -0.055108   
C306     C      0.243160000000     0.955200000000     0.263840000000    -0.0557684  
C307     C      0.195350000000     0.982670000000     0.216510000000     0.0595817  
C308     C      0.126500000000     0.992300000000     0.195240000000    -0.0320312  
C309     C      0.255240000000     0.993970000000     0.274780000000     0.058793   
C310     C      0.325520000000     0.985150000000     0.290170000000    -0.0800424  
C311     C      0.236850000000     0.026900000000     0.256660000000    -0.0513018  
C312     C      0.358950000000     0.999990000000     0.317890000000     0.168319   
C313     C      0.307160000000     0.000120000000     0.373970000000     0.00581533 
C314     C      0.213460000000     0.949750000000     0.234920000000    -0.0539788  
C315     C      0.774810000000     0.988290000000     0.125780000000    -0.0343242  
C316     C      0.681430000000     0.976940000000     0.324710000000    -0.028784   
C317     C      0.596700000000     0.988770000000     0.306810000000    -0.0104778  
C318     C      0.653440000000     0.990770000000     0.358110000000    -0.00941146 
C319     C      0.708610000000     0.948290000000     0.242480000000    -0.0565163  
C320     C      0.741390000000     0.016150000000     0.206310000000    -0.0544963  
C321     C      0.696000000000     0.986510000000     0.254650000000     0.0603478  
C322     C      0.627760000000     0.974910000000     0.276260000000    -0.0283392  
C323     C      0.754340000000     0.977940000000     0.194470000000     0.0600529  
C324     C      0.824080000000     0.988910000000     0.178710000000    -0.0809681  
C325     C      0.737590000000     0.944190000000     0.212630000000    -0.052795   
C326     C      0.857650000000     0.974730000000     0.150960000000     0.170555   
C327     C      0.805660000000     0.974760000000     0.094740000000     0.00193903 
C328     C      0.712430000000     0.020250000000     0.236170000000    -0.0523113  
C329     C      0.994830000000     0.326670000000     0.682210000000    -0.0338017  
C330     C      0.993030000000     0.129490000000     0.778700000000    -0.0350215  
C331     C      0.006470000000     0.153750000000     0.861300000000    -0.00466466 
C332     C      0.008030000000     0.098720000000     0.809030000000    -0.00328653 
C333     C      0.961070000000     0.209140000000     0.746910000000    -0.0586965  
C334     C      0.026940000000     0.245950000000     0.710540000000    -0.0533995  
C335     C      0.000170000000     0.198540000000     0.758660000000     0.0639829  
C336     C      0.991480000000     0.181890000000     0.828560000000    -0.0344511  
C337     C      0.987820000000     0.256810000000     0.699090000000     0.0599494  
C338     C      0.995900000000     0.276990000000     0.629820000000    -0.0761622  
C339     C      0.955090000000     0.238070000000     0.717390000000    -0.0509168  
C340     C      0.979340000000     0.306270000000     0.598680000000     0.170243   
C341     C      0.978670000000     0.358760000000     0.654000000000     0.000905648
C342     C      0.032920000000     0.217060000000     0.740110000000    -0.0549117  
C343     C      0.012680000000     0.829750000000     0.788220000000    -0.0293375  
C344     C      0.966280000000     0.670810000000     0.651020000000    -0.0314766  
C345     C      0.019800000000     0.602450000000     0.652590000000    -0.00762527 
C346     C      0.976300000000     0.650020000000     0.611750000000    -0.00525175 
C347     C      0.001120000000     0.688740000000     0.749880000000    -0.0505808  
C348     C      0.998950000000     0.769370000000     0.728810000000    -0.0568919  
C349     C      0.999900000000     0.699270000000     0.709000000000     0.0571087  
C350     C      0.010860000000     0.628710000000     0.688980000000    -0.0279067  
C351     C      0.001970000000     0.758890000000     0.769620000000     0.0646499  
C352     C      0.973570000000     0.786560000000     0.830870000000    -0.0812563  
C353     C      0.003620000000     0.718110000000     0.779360000000    -0.0527543  
C354     C      0.986440000000     0.808730000000     0.868790000000     0.17148    
C355     C      0.024140000000     0.856630000000     0.823360000000     0.00129788 
C356     C      0.999470000000     0.740050000000     0.699200000000    -0.0505723  
C357     C      0.985120000000     0.838310000000     0.190990000000    -0.0366334  
C358     C      0.981690000000     0.640450000000     0.286810000000    -0.0302261  
C359     C      0.997550000000     0.660200000000     0.370230000000    -0.00925681 
C360     C      0.997330000000     0.607920000000     0.314870000000    -0.00904854 
C361     C      0.022230000000     0.729000000000     0.251730000000    -0.0524939  
C362     C      0.944400000000     0.750860000000     0.229820000000    -0.0525992  
C363     C      0.989500000000     0.710290000000     0.270100000000     0.0598468  
C364     C      0.981880000000     0.690070000000     0.339320000000    -0.0298564  
C365     C      0.977130000000     0.769340000000     0.211220000000     0.0590531  
C366     C      0.985050000000     0.785880000000     0.141250000000    -0.085321   
C367     C      0.016240000000     0.758290000000     0.222560000000    -0.0541323  
C368     C      0.970400000000     0.814350000000     0.108310000000     0.167213   
C369     C      0.969650000000     0.869430000000     0.161240000000    -0.00322422 
C370     C      0.950380000000     0.721610000000     0.259050000000    -0.0559868  
C371     C      0.977930000000     0.190170000000     0.129870000000    -0.0341553  
C372     C      0.974880000000     0.285860000000     0.327580000000    -0.0288298  
C373     C      0.989610000000     0.369250000000     0.307250000000    -0.0103529  
C374     C      0.990980000000     0.314000000000     0.359770000000    -0.00964236 
C375     C      0.014410000000     0.250380000000     0.239270000000    -0.0525787  
C376     C      0.936490000000     0.229070000000     0.217120000000    -0.0524724  
C377     C      0.981740000000     0.269120000000     0.257660000000     0.0604339  
C378     C      0.973510000000     0.338180000000     0.277850000000    -0.0284146  
C379     C      0.969170000000     0.210250000000     0.198790000000     0.059457   
C380     C      0.975940000000     0.140290000000     0.182240000000    -0.0805054  
C381     C      0.008330000000     0.221150000000     0.210100000000    -0.0541411  
C382     C      0.960700000000     0.107960000000     0.153540000000     0.169405   
C383     C      0.963120000000     0.160390000000     0.098510000000     0.00107253 
C384     C      0.942580000000     0.258250000000     0.246360000000    -0.0564789  
H1       H      0.925340000000     0.928320000000     0.039800000000     0.214887   
H2       H      0.039210000000     0.044150000000     0.043960000000     0.20579    
H3       H      0.931560000000     0.039230000000     0.922100000000     0.207152   
H4       H      0.047060000000     0.926080000000     0.933510000000     0.211382   
H5       H      0.928170000000     0.542620000000     0.430060000000     0.210146   
H6       H      0.041740000000     0.428160000000     0.424250000000     0.210575   
H7       H      0.930230000000     0.425050000000     0.540920000000     0.210301   
H8       H      0.045220000000     0.538140000000     0.542210000000     0.209783   
H9       H      0.425710000000     0.926830000000     0.432360000000     0.208377   
H10      H      0.540750000000     0.039530000000     0.423960000000     0.213801   
H11      H      0.545390000000     0.929530000000     0.542570000000     0.208094   
H12      H      0.431570000000     0.043760000000     0.542580000000     0.211351   
H13      H      0.544970000000     0.429050000000     0.927880000000     0.207476   
H14      H      0.425720000000     0.428220000000     0.038450000000     0.20925    
H15      H      0.432380000000     0.545590000000     0.927490000000     0.209471   
H16      H      0.543100000000     0.538940000000     0.045860000000     0.209695   
H17      H      0.409580000000     0.249210000000     0.208150000000     0.0446787  
H18      H      0.485820000000     0.213430000000     0.335000000000     0.0373286  
H19      H      0.482980000000     0.121980000000     0.247680000000     0.05037    
H20      H      0.433890000000     0.365260000000     0.158270000000     0.0363612  
H21      H      0.522740000000     0.159760000000     0.364660000000     0.0441278  
H22      H      0.472860000000     0.248740000000     0.121580000000     0.034455   
H23      H      0.469580000000     0.335780000000     0.213350000000     0.0348053  
H24      H      0.485050000000     0.302550000000     0.070670000000     0.0410774  
H25      H      0.471270000000     0.071110000000     0.302670000000     0.00302737 
H26      H      0.418340000000     0.197570000000     0.259580000000     0.0418291  
H27      H      0.475010000000     0.162400000000     0.389070000000     0.0386506  
H28      H      0.537880000000     0.261010000000     0.198300000000     0.0428063  
H29      H      0.441470000000     0.183400000000     0.328600000000     0.0385241  
H30      H      0.481430000000     0.389800000000     0.162750000000     0.0397444  
H31      H      0.516490000000     0.278950000000     0.131300000000     0.0401029  
H32      H      0.514560000000     0.329240000000     0.184250000000     0.0391901  
H33      H      0.546610000000     0.209260000000     0.249550000000     0.0497622  
H34      H      0.440120000000     0.130860000000     0.278990000000     0.0478387  
H35      H      0.436400000000     0.303910000000     0.093350000000     0.0359217  
H36      H      0.531250000000     0.072340000000     0.278390000000     0.137089   
H37      H      0.484100000000     0.750450000000     0.170310000000     0.0393433  
H38      H      0.513650000000     0.758220000000     0.339640000000     0.0337764  
H39      H      0.434870000000     0.828640000000     0.268460000000     0.0566752  
H40      H      0.496630000000     0.587080000000     0.177320000000     0.0383418  
H41      H      0.467760000000     0.792850000000     0.384250000000     0.0439765  
H42      H      0.527780000000     0.703100000000     0.142280000000     0.033111   
H43      H      0.449010000000     0.630510000000     0.211210000000     0.0329183  
H44      H      0.517050000000     0.656740000000     0.083510000000     0.0385297  
H45      H      0.447430000000     0.886700000000     0.314830000000     0.00199085 
H46      H      0.478370000000     0.800420000000     0.220690000000     0.0393924  
H47      H      0.517910000000     0.812020000000     0.389460000000     0.0364535  
H48      H      0.486980000000     0.658600000000     0.261290000000     0.0425609  
H49      H      0.530500000000     0.803940000000     0.317250000000     0.039278   
H50      H      0.447000000000     0.580660000000     0.157190000000     0.0375755  
H51      H      0.476110000000     0.696420000000     0.127170000000     0.0368457  
H52      H      0.432540000000     0.652550000000     0.165160000000     0.0400236  
H53      H      0.473820000000     0.708940000000     0.311910000000     0.0437925  
H54      H      0.486610000000     0.843060000000     0.275010000000     0.0450061  
H55      H      0.546150000000     0.637430000000     0.123960000000     0.0343652  
H56      H      0.399200000000     0.866220000000     0.354960000000     0.141432   
H57      H      0.550180000000     0.772570000000     0.708000000000     0.0406156  
H58      H      0.500750000000     0.721420000000     0.848030000000     0.0348769  
H59      H      0.501170000000     0.634600000000     0.755920000000     0.0570802  
H60      H      0.445960000000     0.876060000000     0.668550000000     0.0389644  
H61      H      0.538430000000     0.666230000000     0.874740000000     0.0356453  
H62      H      0.479850000000     0.756800000000     0.635210000000     0.0346551  
H63      H      0.484710000000     0.848320000000     0.722440000000     0.0340458  
H64      H      0.489150000000     0.807590000000     0.580920000000     0.0386523  
H65      H      0.487470000000     0.581400000000     0.807660000000     0.0131189  
H66      H      0.560990000000     0.720980000000     0.759050000000     0.0446221  
H67      H      0.490770000000     0.667840000000     0.899330000000     0.0374748  
H68      H      0.422400000000     0.760940000000     0.723150000000     0.0450045  
H69      H      0.456940000000     0.691020000000     0.839780000000     0.0376413  
H70      H      0.494270000000     0.899480000000     0.668310000000     0.0381047  
H71      H      0.524590000000     0.786530000000     0.640350000000     0.0364351  
H72      H      0.527420000000     0.839310000000     0.690700000000     0.0360717  
H73      H      0.433170000000     0.709290000000     0.774050000000     0.0411986  
H74      H      0.457090000000     0.641380000000     0.786110000000     0.0479678  
H75      H      0.442370000000     0.811290000000     0.607030000000     0.0392821  
H76      H      0.561760000000     0.623160000000     0.815740000000     0.151378   
H77      H      0.492200000000     0.219910000000     0.800240000000     0.0392297  
H78      H      0.522930000000     0.211850000000     0.630400000000     0.0337993  
H79      H      0.445230000000     0.141200000000     0.702590000000     0.0571378  
H80      H      0.503800000000     0.383290000000     0.793450000000     0.0390398  
H81      H      0.476700000000     0.176880000000     0.586400000000     0.044722   
H82      H      0.533510000000     0.267620000000     0.829880000000     0.0326037  
H83      H      0.457550000000     0.339940000000     0.757550000000     0.0333241  
H84      H      0.519820000000     0.313860000000     0.888110000000     0.0379148  
H85      H      0.458000000000     0.083050000000     0.656480000000     0.00228027 
H86      H      0.487740000000     0.169860000000     0.750010000000     0.0395003  
H87      H      0.526830000000     0.157830000000     0.580630000000     0.0360724  
H88      H      0.496380000000     0.311530000000     0.709030000000     0.0427433  
H89      H      0.540230000000     0.166290000000     0.652750000000     0.0391194  
H90      H      0.453270000000     0.389860000000     0.811210000000     0.0383567  
H91      H      0.481160000000     0.274000000000     0.842660000000     0.036853   
H92      H      0.439170000000     0.317890000000     0.802860000000     0.0403569  
H93      H      0.484080000000     0.261060000000     0.658420000000     0.0439913  
H94      H      0.497060000000     0.127160000000     0.695700000000     0.0451095  
H95      H      0.550720000000     0.333260000000     0.849050000000     0.0335824  
H96      H      0.408730000000     0.102510000000     0.617430000000     0.141874   
H97      H      0.755120000000     0.252400000000     0.546930000000     0.0462983  
H98      H      0.719610000000     0.126840000000     0.467910000000     0.0357148  
H99      H      0.629640000000     0.216190000000     0.468240000000     0.0577668  
H100     H      0.870270000000     0.305060000000     0.524880000000     0.0390893  
H101     H      0.664660000000     0.098770000000     0.430640000000     0.0431224  
H102     H      0.752500000000     0.340520000000     0.488470000000     0.0350287  
H103     H      0.842580000000     0.251420000000     0.486010000000     0.0357039  
H104     H      0.804990000000     0.393530000000     0.478900000000     0.039712   
H105     H      0.577040000000     0.164170000000     0.477460000000     0.00326624 
H106     H      0.704180000000     0.200660000000     0.535940000000     0.0409524  
H107     H      0.667290000000     0.074020000000     0.478110000000     0.0375842  
H108     H      0.767740000000     0.267080000000     0.419520000000     0.0414042  
H109     H      0.689180000000     0.134030000000     0.511870000000     0.0369619  
H110     H      0.895250000000     0.303970000000     0.477420000000     0.0394416  
H111     H      0.782850000000     0.334160000000     0.444340000000     0.0373874  
H112     H      0.834990000000     0.283020000000     0.443020000000     0.0372519  
H113     H      0.716920000000     0.215220000000     0.408520000000     0.0496132  
H114     H      0.636600000000     0.185190000000     0.511660000000     0.0459308  
H115     H      0.807140000000     0.368300000000     0.526120000000     0.0386943  
H116     H      0.577070000000     0.147860000000     0.412850000000     0.149606   
H117     H      0.716590000000     0.756440000000     0.556680000000     0.0440906  
H118     H      0.843130000000     0.716630000000     0.481520000000     0.0351035  
H119     H      0.753000000000     0.627630000000     0.484790000000     0.057655   
H120     H      0.665080000000     0.871760000000     0.528010000000     0.0359616  
H121     H      0.872020000000     0.661670000000     0.445820000000     0.0422145  
H122     H      0.629290000000     0.752200000000     0.497040000000     0.0344699  
H123     H      0.719230000000     0.841280000000     0.491840000000     0.0338595  
H124     H      0.576520000000     0.804200000000     0.484270000000     0.0390457  
H125     H      0.805500000000     0.575270000000     0.495680000000     0.00217765 
H126     H      0.767960000000     0.704490000000     0.548710000000     0.0404626  
H127     H      0.895760000000     0.664100000000     0.493800000000     0.0367378  
H128     H      0.704250000000     0.763890000000     0.428610000000     0.041185   
H129     H      0.835600000000     0.687430000000     0.526140000000     0.0359525  
H130     H      0.666590000000     0.893390000000     0.479030000000     0.0388088  
H131     H      0.636530000000     0.780350000000     0.451690000000     0.0371641  
H132     H      0.688320000000     0.831690000000     0.448700000000     0.0370208  
H133     H      0.755700000000     0.712120000000     0.420670000000     0.0496125  
H134     H      0.784630000000     0.635810000000     0.527580000000     0.0454695  
H135     H      0.601090000000     0.808360000000     0.531740000000     0.0364021  
H136     H      0.818220000000     0.571320000000     0.430960000000     0.14901    
H137     H      0.256670000000     0.218280000000     0.553040000000     0.0465429  
H138     H      0.129580000000     0.251120000000     0.473840000000     0.0359554  
H139     H      0.219130000000     0.340860000000     0.472230000000     0.0594001  
H140     H      0.309860000000     0.102710000000     0.534390000000     0.0374008  
H141     H      0.101350000000     0.304750000000     0.435110000000     0.0426746  
H142     H      0.343920000000     0.218100000000     0.491490000000     0.0362369  
H143     H      0.253990000000     0.128940000000     0.497080000000     0.0347945  
H144     H      0.396460000000     0.165400000000     0.482220000000     0.0414436  
H145     H      0.166680000000     0.393350000000     0.480370000000     0.00292144 
H146     H      0.204770000000     0.268910000000     0.541240000000     0.0427408  
H147     H      0.076460000000     0.303360000000     0.482610000000     0.0382481  
H148     H      0.268350000000     0.200670000000     0.425890000000     0.0423579  
H149     H      0.136720000000     0.282550000000     0.517020000000     0.038031   
H150     H      0.305960000000     0.075820000000     0.488180000000     0.0402238  
H151     H      0.335540000000     0.186080000000     0.448960000000     0.0388725  
H152     H      0.283500000000     0.134370000000     0.452240000000     0.0389474  
H153     H      0.216590000000     0.251380000000     0.414110000000     0.0497298  
H154     H      0.187880000000     0.334860000000     0.515710000000     0.0488561  
H155     H      0.372660000000     0.164740000000     0.530280000000     0.0415392  
H156     H      0.151150000000     0.392410000000     0.415690000000     0.148402   
H157     H      0.255480000000     0.755970000000     0.423080000000     0.0456924  
H158     H      0.129760000000     0.715390000000     0.500050000000     0.0357223  
H159     H      0.219940000000     0.626510000000     0.494410000000     0.0578183  
H160     H      0.306270000000     0.871610000000     0.450490000000     0.0369595  
H161     H      0.101990000000     0.659080000000     0.534960000000     0.0427998  
H162     H      0.342750000000     0.752370000000     0.483490000000     0.0355906  
H163     H      0.252440000000     0.841130000000     0.486970000000     0.0342674  
H164     H      0.395220000000     0.804860000000     0.495650000000     0.0402953  
H165     H      0.167480000000     0.574420000000     0.482180000000     0.0026696  
H166     H      0.204670000000     0.703550000000     0.431270000000     0.040807   
H167     H      0.077010000000     0.663470000000     0.487710000000     0.0376385  
H168     H      0.267770000000     0.764110000000     0.551100000000     0.0415636  
H169     H      0.136860000000     0.687210000000     0.454700000000     0.0367735  
H170     H      0.305080000000     0.893650000000     0.499290000000     0.0388227  
H171     H      0.335230000000     0.781350000000     0.528270000000     0.0372737  
H172     H      0.283310000000     0.832310000000     0.530280000000     0.0371624  
H173     H      0.217020000000     0.711660000000     0.559280000000     0.0492379  
H174     H      0.188380000000     0.635610000000     0.451750000000     0.045887   
H175     H      0.371070000000     0.807760000000     0.447890000000     0.040978   
H176     H      0.154990000000     0.568600000000     0.546640000000     0.146674   
H177     H      0.713340000000     0.410920000000     0.220810000000     0.0454872  
H178     H      0.749520000000     0.489270000000     0.346560000000     0.0369358  
H179     H      0.837150000000     0.493180000000     0.254950000000     0.0576222  
H180     H      0.596400000000     0.431660000000     0.166090000000     0.0405114  
H181     H      0.803320000000     0.529050000000     0.373050000000     0.0446112  
H182     H      0.714590000000     0.469010000000     0.134020000000     0.035047   
H183     H      0.622770000000     0.469460000000     0.221540000000     0.0349666  
H184     H      0.663670000000     0.477800000000     0.080030000000     0.0395525  
H185     H      0.891360000000     0.485120000000     0.305990000000     0.00256383 
H186     H      0.765140000000     0.422980000000     0.271580000000     0.0409516  
H187     H      0.803420000000     0.481730000000     0.398170000000     0.0377211  
H188     H      0.696200000000     0.537860000000     0.208050000000     0.0415685  
H189     H      0.781830000000     0.446880000000     0.338390000000     0.037017   
H190     H      0.570990000000     0.478810000000     0.168000000000     0.0390682  
H191     H      0.683830000000     0.512860000000     0.140130000000     0.0371288  
H192     H      0.630540000000     0.513170000000     0.191060000000     0.0370424  
H193     H      0.747800000000     0.549880000000     0.258930000000     0.0502952  
H194     H      0.832580000000     0.449410000000     0.285820000000     0.0459009  
H195     H      0.660010000000     0.431040000000     0.105890000000     0.0410961  
H196     H      0.891090000000     0.549550000000     0.320180000000     0.147303   
H197     H      0.250320000000     0.559500000000     0.209040000000     0.0444448  
H198     H      0.215990000000     0.482430000000     0.335050000000     0.0372399  
H199     H      0.123780000000     0.483540000000     0.247990000000     0.0579066  
H200     H      0.366460000000     0.535180000000     0.157940000000     0.0377689  
H201     H      0.162650000000     0.444650000000     0.364620000000     0.043096   
H202     H      0.249060000000     0.499440000000     0.121220000000     0.0349164  
H203     H      0.337000000000     0.498750000000     0.212600000000     0.0344512  
H204     H      0.302460000000     0.487830000000     0.069680000000     0.0389161  
H205     H      0.072590000000     0.492510000000     0.301940000000     0.00283319 
H206     H      0.199160000000     0.549660000000     0.260930000000     0.0408794  
H207     H      0.164800000000     0.492100000000     0.389330000000     0.0382329  
H208     H      0.261860000000     0.431920000000     0.196210000000     0.0413662  
H209     H      0.185020000000     0.526110000000     0.328910000000     0.0368846  
H210     H      0.390730000000     0.487570000000     0.161740000000     0.0386656  
H211     H      0.278540000000     0.455090000000     0.129560000000     0.0368861  
H212     H      0.329610000000     0.454740000000     0.182430000000     0.0369047  
H213     H      0.210850000000     0.422130000000     0.248110000000     0.0505281  
H214     H      0.131670000000     0.526360000000     0.279530000000     0.0458348  
H215     H      0.305330000000     0.535440000000     0.094080000000     0.0389841  
H216     H      0.071280000000     0.427670000000     0.314910000000     0.14777    
H217     H      0.258720000000     0.551700000000     0.746740000000     0.046337   
H218     H      0.135930000000     0.467180000000     0.712790000000     0.0358911  
H219     H      0.223540000000     0.472140000000     0.621170000000     0.0590388  
H220     H      0.310450000000     0.533240000000     0.862830000000     0.0381061  
H221     H      0.108660000000     0.428940000000     0.658120000000     0.0445394  
H222     H      0.349350000000     0.494640000000     0.747510000000     0.035314   
H223     H      0.257230000000     0.493610000000     0.834660000000     0.0356579  
H224     H      0.401100000000     0.486870000000     0.801460000000     0.0402748  
H225     H      0.169570000000     0.480150000000     0.569970000000     0.0017357  
H226     H      0.207650000000     0.538690000000     0.695500000000     0.0424787  
H227     H      0.081350000000     0.474880000000     0.662030000000     0.0372622  
H228     H      0.276570000000     0.425070000000     0.761300000000     0.0414269  
H229     H      0.140470000000     0.511560000000     0.682630000000     0.0370028  
H230     H      0.308310000000     0.486560000000     0.888970000000     0.0397253  
H231     H      0.342420000000     0.451100000000     0.778410000000     0.0375021  
H232     H      0.289190000000     0.450570000000     0.829010000000     0.037592   
H233     H      0.225580000000     0.412060000000     0.709990000000     0.0488954  
H234     H      0.190880000000     0.514140000000     0.629230000000     0.0479388  
H235     H      0.374900000000     0.533600000000     0.802430000000     0.0377809  
H236     H      0.157650000000     0.415220000000     0.568110000000     0.150938   
H237     H      0.724570000000     0.555120000000     0.760810000000     0.0453512  
H238     H      0.756530000000     0.478000000000     0.633320000000     0.0359112  
H239     H      0.848480000000     0.475770000000     0.720650000000     0.0575835  
H240     H      0.607970000000     0.535160000000     0.812030000000     0.0510988  
H241     H      0.809560000000     0.439810000000     0.603270000000     0.0425629  
H242     H      0.723560000000     0.492840000000     0.847550000000     0.034563   
H243     H      0.635480000000     0.498500000000     0.756510000000     0.0366443  
H244     H      0.669740000000     0.482660000000     0.899020000000     0.0381053  
H245     H      0.900030000000     0.484760000000     0.667080000000     0.00290007 
H246     H      0.775390000000     0.544280000000     0.708800000000     0.0408723  
H247     H      0.807970000000     0.487690000000     0.579380000000     0.0378041  
H248     H      0.707930000000     0.427900000000     0.771170000000     0.0410764  
H249     H      0.788170000000     0.521070000000     0.640290000000     0.0369537  
H250     H      0.581360000000     0.488880000000     0.807390000000     0.0446661  
H251     H      0.691900000000     0.450220000000     0.838300000000     0.0362698  
H252     H      0.640800000000     0.453550000000     0.785690000000     0.0368328  
H253     H      0.758770000000     0.417080000000     0.719240000000     0.0492838  
H254     H      0.841590000000     0.519400000000     0.690010000000     0.0459622  
H255     H      0.669290000000     0.530920000000     0.875820000000     0.0397589  
H256     H      0.899900000000     0.420280000000     0.652410000000     0.1481     
H257     H      0.722410000000     0.713480000000     0.056810000000     0.0446425  
H258     H      0.754040000000     0.838480000000     0.975410000000     0.0368719  
H259     H      0.845520000000     0.750680000000     0.974720000000     0.0595447  
H260     H      0.606280000000     0.660020000000     0.038370000000     0.0341175  
H261     H      0.807270000000     0.866320000000     0.935660000000     0.0443967  
H262     H      0.722240000000     0.624700000000     0.998140000000     0.0352684  
H263     H      0.633110000000     0.714820000000     0.000010000000     0.0363914  
H264     H      0.669210000000     0.572340000000     0.989560000000     0.0373912  
H265     H      0.897560000000     0.803730000000     0.980820000000     0.00853922 
H266     H      0.772840000000     0.765360000000     0.043950000000     0.0427088  
H267     H      0.805690000000     0.892440000000     0.982470000000     0.037211   
H268     H      0.705650000000     0.698370000000     0.929910000000     0.0413335  
H269     H      0.786040000000     0.832720000000     0.018460000000     0.0399187  
H270     H      0.579610000000     0.663310000000     0.991940000000     0.0372682  
H271     H      0.690890000000     0.632020000000     0.954840000000     0.0387728  
H272     H      0.638990000000     0.684300000000     0.955980000000     0.0389253  
H273     H      0.756000000000     0.750210000000     0.917100000000     0.0502164  
H274     H      0.839400000000     0.782530000000     0.017660000000     0.0528801  
H275     H      0.667630000000     0.597610000000     0.036820000000     0.0355814  
H276     H      0.893840000000     0.819950000000     0.915700000000     0.151358   
H277     H      0.751840000000     0.215100000000     0.911850000000     0.043978   
H278     H      0.717160000000     0.338150000000     0.995040000000     0.0354814  
H279     H      0.626130000000     0.250010000000     0.991480000000     0.0492988  
H280     H      0.868140000000     0.161910000000     0.931370000000     0.0356965  
H281     H      0.662480000000     0.365490000000     0.033250000000     0.0455324  
H282     H      0.751270000000     0.125620000000     0.968900000000     0.0345921  
H283     H      0.840420000000     0.215680000000     0.970530000000     0.0344998  
H284     H      0.804090000000     0.073040000000     0.976900000000     0.0397521  
H285     H      0.574200000000     0.304020000000     0.982500000000     0.000140961
H286     H      0.700470000000     0.266050000000     0.924500000000     0.0398093  
H287     H      0.665670000000     0.391910000000     0.986770000000     0.0346857  
H288     H      0.766370000000     0.198170000000     0.038770000000     0.0420459  
H289     H      0.686700000000     0.332790000000     0.950850000000     0.0361358  
H290     H      0.893810000000     0.163730000000     0.978430000000     0.0392847  
H291     H      0.782010000000     0.131930000000     0.012780000000     0.0403486  
H292     H      0.833760000000     0.184150000000     0.013700000000     0.0404918  
H293     H      0.714970000000     0.249100000000     0.051420000000     0.0480986  
H294     H      0.633820000000     0.282120000000     0.949080000000     0.0442782  
H295     H      0.806340000000     0.099410000000     0.930310000000     0.0358057  
H296     H      0.578190000000     0.280260000000     0.042370000000     0.137727   
H297     H      0.217850000000     0.753500000000     0.062170000000     0.0442112  
H298     H      0.346630000000     0.720960000000     0.985640000000     0.0354097  
H299     H      0.255880000000     0.632800000000     0.978170000000     0.0578911  
H300     H      0.163080000000     0.869610000000     0.043720000000     0.0370559  
H301     H      0.375630000000     0.668680000000     0.945770000000     0.0414489  
H302     H      0.131370000000     0.753710000000     0.001250000000     0.0388426  
H303     H      0.219680000000     0.844470000000     0.006540000000     0.0365246  
H304     H      0.077810000000     0.805330000000     0.992190000000     0.0427435  
H305     H      0.307440000000     0.579230000000     0.985660000000     0.00211603 
H306     H      0.270000000000     0.703130000000     0.050120000000     0.0406489  
H307     H      0.398700000000     0.667270000000     0.994140000000     0.0369105  
H308     H      0.207490000000     0.773130000000     0.935240000000     0.0429802  
H309     H      0.337770000000     0.688000000000     0.027300000000     0.0383233  
H310     H      0.166800000000     0.896700000000     0.997650000000     0.0372389  
H311     H      0.139110000000     0.785660000000     0.958570000000     0.0427543  
H312     H      0.190380000000     0.838440000000     0.961660000000     0.0395083  
H313     H      0.259700000000     0.722900000000     0.923220000000     0.0496167  
H314     H      0.286090000000     0.636700000000     0.022560000000     0.0473678  
H315     H      0.102050000000     0.806970000000     0.040010000000     0.0384539  
H316     H      0.323120000000     0.581510000000     0.921430000000     0.146725   
H317     H      0.254380000000     0.260220000000     0.048120000000     0.0443271  
H318     H      0.217580000000     0.130350000000     0.978160000000     0.0353681  
H319     H      0.126790000000     0.218670000000     0.975870000000     0.0502092  
H320     H      0.370250000000     0.309660000000     0.019940000000     0.0379311  
H321     H      0.163260000000     0.098850000000     0.943470000000     0.0457365  
H322     H      0.250780000000     0.344830000000     0.983960000000     0.0338782  
H323     H      0.340040000000     0.255000000000     0.984980000000     0.0336133  
H324     H      0.303960000000     0.396680000000     0.970020000000     0.0391789  
H325     H      0.074970000000     0.165450000000     0.989750000000    -0.00046561 
H326     H      0.203240000000     0.207900000000     0.041630000000     0.0399474  
H327     H      0.165570000000     0.077750000000     0.992620000000     0.0357543  
H328     H      0.263540000000     0.267260000000     0.919770000000     0.0410703  
H329     H      0.187660000000     0.139640000000     0.022040000000     0.0367618  
H330     H      0.392770000000     0.306980000000     0.971410000000     0.0397221  
H331     H      0.280440000000     0.335610000000     0.939910000000     0.0368893  
H332     H      0.331690000000     0.284240000000     0.940530000000     0.0370577  
H333     H      0.212500000000     0.214820000000     0.913280000000     0.0479012  
H334     H      0.135120000000     0.189680000000     0.020340000000     0.0462872  
H335     H      0.305570000000     0.375050000000     0.018970000000     0.0383009  
H336     H      0.077970000000     0.185830000000     0.928490000000     0.136331   
H337     H      0.728110000000     0.054380000000     0.707920000000     0.044026   
H338     H      0.854310000000     0.973820000000     0.744290000000     0.0356787  
H339     H      0.761000000000     0.971140000000     0.830220000000     0.0574678  
H340     H      0.669870000000     0.034980000000     0.593200000000     0.0376825  
H341     H      0.880280000000     0.934630000000     0.798890000000     0.0448075  
H342     H      0.639530000000     0.997800000000     0.711540000000     0.034641   
H343     H      0.725180000000     0.995810000000     0.618060000000     0.0344086  
H344     H      0.584030000000     0.989920000000     0.661740000000     0.0365906  
H345     H      0.810920000000     0.978080000000     0.885060000000     0.00180786 
H346     H      0.779970000000     0.041460000000     0.758390000000     0.0402002  
H347     H      0.905220000000     0.982060000000     0.799140000000     0.0359699  
H348     H      0.712070000000     0.927690000000     0.691810000000     0.0406108  
H349     H      0.845890000000     0.016640000000     0.775830000000     0.0371079  
H350     H      0.670250000000     0.987940000000     0.567630000000     0.0366096  
H351     H      0.644160000000     0.953920000000     0.680690000000     0.0372642  
H352     H      0.693830000000     0.952770000000     0.626390000000     0.0369619  
H353     H      0.764060000000     0.914790000000     0.742120000000     0.0493144  
H354     H      0.792430000000     0.014630000000     0.826160000000     0.0463634  
H355     H      0.610530000000     0.036350000000     0.657990000000     0.0379268  
H356     H      0.827650000000     0.913560000000     0.883010000000     0.1525     
H357     H      0.262930000000     0.056550000000     0.724400000000     0.0455372  
H358     H      0.227450000000     0.981880000000     0.854160000000     0.0355706  
H359     H      0.141670000000     0.974590000000     0.761030000000     0.0578137  
H360     H      0.377660000000     0.035380000000     0.666780000000     0.0378075  
H361     H      0.173800000000     0.942800000000     0.881890000000     0.0418646  
H362     H      0.259180000000     0.994990000000     0.639160000000     0.0351304  
H363     H      0.353370000000     0.999010000000     0.724010000000     0.0349244  
H364     H      0.309050000000     0.984390000000     0.584120000000     0.0373701  
H365     H      0.086380000000     0.981840000000     0.810460000000     0.00339323 
H366     H      0.212690000000     0.045730000000     0.776980000000     0.0416744  
H367     H      0.171870000000     0.991380000000     0.904330000000     0.0369186  
H368     H      0.280310000000     0.929350000000     0.714760000000     0.0412344  
H369     H      0.195020000000     0.023720000000     0.844020000000     0.0393094  
H370     H      0.403700000000     0.988630000000     0.669450000000     0.0381398  
H371     H      0.290780000000     0.951870000000     0.646070000000     0.0385087  
H372     H      0.345430000000     0.954220000000     0.695180000000     0.0379955  
H373     H      0.230210000000     0.918590000000     0.767370000000     0.0494851  
H374     H      0.144870000000     0.018970000000     0.791220000000     0.0486162  
H375     H      0.311990000000     0.032470000000     0.607540000000     0.0362204  
H376     H      0.089910000000     0.917740000000     0.828980000000     0.14684    
H377     H      0.204780000000     0.919770000000     0.226470000000     0.0445313  
H378     H      0.246300000000     0.996530000000     0.352590000000     0.0355578  
H379     H      0.332020000000     0.995340000000     0.259160000000     0.05004    
H380     H      0.089780000000     0.945210000000     0.170520000000     0.0388278  
H381     H      0.302860000000     0.032700000000     0.378640000000     0.0456415  
H382     H      0.210680000000     0.978650000000     0.140180000000     0.0342593  
H383     H      0.117040000000     0.982480000000     0.225590000000     0.0341396  
H384     H      0.160970000000     0.989220000000     0.085090000000     0.0379577  
H385     H      0.386770000000     0.983350000000     0.309710000000     0.00104975 
H386     H      0.256950000000     0.929260000000     0.277330000000     0.0408905  
H387     H      0.300880000000     0.985030000000     0.402910000000     0.034497   
H388     H      0.193730000000     0.047380000000     0.213840000000     0.0403736  
H389     H      0.275730000000     0.952280000000     0.343620000000     0.0368945  
H390     H      0.066900000000     0.993630000000     0.170410000000     0.037602   
H391     H      0.180940000000     0.023270000000     0.145530000000     0.0375885  
H392     H      0.127070000000     0.025540000000     0.194870000000     0.0372497  
H393     H      0.245890000000     0.056880000000     0.264740000000     0.0472867  
H394     H      0.325460000000     0.951900000000     0.290070000000     0.046637   
H395     H      0.156460000000     0.942160000000     0.110190000000     0.038579   
H396     H      0.382880000000     0.044020000000     0.288410000000     0.1375     
H397     H      0.702990000000     0.049820000000     0.245270000000     0.0466429  
H398     H      0.744850000000     0.976920000000     0.116590000000     0.035769   
H399     H      0.830840000000     0.978790000000     0.209700000000     0.0502252  
H400     H      0.590290000000     0.020940000000     0.301650000000     0.0452486  
H401     H      0.801340000000     0.942360000000     0.088900000000     0.0436492  
H402     H      0.712010000000     0.988660000000     0.331050000000     0.0340469  
H403     H      0.617980000000     0.985060000000     0.246110000000     0.0338319  
H404     H      0.662340000000     0.975280000000     0.386140000000     0.0393797  
H405     H      0.885120000000     0.991980000000     0.159020000000     0.00231588 
H406     H      0.754000000000     0.042710000000     0.192850000000     0.0418052  
H407     H      0.799520000000     0.990830000000     0.066310000000     0.0374926  
H408     H      0.696380000000     0.921750000000     0.256300000000     0.0409137  
H409     H      0.773510000000     0.021510000000     0.126140000000     0.0394468  
H410     H      0.568430000000     0.972070000000     0.301290000000     0.04037    
H411     H      0.682970000000     0.943720000000     0.324760000000     0.0366769  
H412     H      0.628920000000     0.941680000000     0.276080000000     0.0365811  
H413     H      0.747410000000     0.914640000000     0.203900000000     0.0477446  
H414     H      0.823380000000     0.022170000000     0.178910000000     0.0498136  
H415     H      0.657930000000     0.023310000000     0.362970000000     0.0413288  
H416     H      0.882330000000     0.931340000000     0.180740000000     0.136393   
H417     H      0.063160000000     0.209190000000     0.748820000000     0.046141   
H418     H      0.984170000000     0.333500000000     0.712990000000     0.0371989  
H419     H      0.986600000000     0.246170000000     0.621460000000     0.0576424  
H420     H      0.039130000000     0.158780000000     0.865530000000     0.0457862  
H421     H      0.945980000000     0.362140000000     0.659420000000     0.0431171  
H422     H      0.004480000000     0.120990000000     0.748630000000     0.0370233  
H423     H      0.001710000000     0.212680000000     0.835820000000     0.0364802  
H424     H      0.993730000000     0.069570000000     0.802040000000     0.0372431  
H425     H      0.995550000000     0.300120000000     0.570170000000     0.00186275 
H426     H      0.052720000000     0.260000000000     0.696860000000     0.0410397  
H427     H      0.993180000000     0.387590000000     0.661860000000     0.0374747  
H428     H      0.935240000000     0.195290000000     0.760700000000     0.0415407  
H429     H      0.028200000000     0.327750000000     0.682290000000     0.0391095  
H430     H      0.991270000000     0.161870000000     0.889730000000     0.0380166  
H431     H      0.959670000000     0.128670000000     0.777760000000     0.037315   
H432     H      0.958100000000     0.181770000000     0.828400000000     0.0371265  
H433     H      0.924850000000     0.246140000000     0.708890000000     0.0495446  
H434     H      0.029270000000     0.278040000000     0.629410000000     0.0476561  
H435     H      0.040920000000     0.095010000000     0.805160000000     0.0404702  
H436     H      0.930430000000     0.311790000000     0.567960000000     0.147402   
H437     H      0.999690000000     0.749400000000     0.668230000000     0.0416675  
H438     H      0.037710000000     0.831180000000     0.766280000000     0.037792   
H439     H      0.966090000000     0.755380000000     0.839380000000     0.0496171  
H440     H      0.050770000000     0.609000000000     0.642160000000     0.0363161  
H441     H      0.055730000000     0.850150000000     0.831700000000     0.0443808  
H442     H      0.956810000000     0.701750000000     0.643710000000     0.0325659  
H443     H      0.037860000000     0.627950000000     0.708490000000     0.0343143  
H444     H      0.948890000000     0.649000000000     0.592810000000     0.0375639  
H445     H      0.960460000000     0.809240000000     0.889760000000    -5.70154e-05
H446     H      0.997510000000     0.800060000000     0.719000000000     0.0406721  
H447     H      0.022990000000     0.888190000000     0.813160000000     0.0373615  
H448     H      0.001520000000     0.658010000000     0.759650000000     0.0400723  
H449     H      0.985050000000     0.841800000000     0.773930000000     0.0361273  
H450     H      0.019480000000     0.570660000000     0.662170000000     0.0394746  
H451     H      0.940450000000     0.655770000000     0.665820000000     0.039436   
H452     H      0.985140000000     0.615680000000     0.705730000000     0.035256   
H453     H      0.007080000000     0.708820000000     0.810160000000     0.046719   
H454     H      0.945780000000     0.800220000000     0.818470000000     0.051742   
H455     H      0.999320000000     0.667770000000     0.595540000000     0.0389282  
H456     H      0.007560000000     0.766170000000     0.902160000000     0.140034   
H457     H      0.924580000000     0.707650000000     0.272780000000     0.0426446  
H458     H      0.974700000000     0.846870000000     0.221410000000     0.0346597  
H459     H      0.974460000000     0.755150000000     0.134230000000     0.0579629  
H460     H      0.030200000000     0.665310000000     0.374510000000     0.0400851  
H461     H      0.937040000000     0.873880000000     0.166360000000     0.0384357  
H462     H      0.992070000000     0.633500000000     0.255960000000     0.0354664  
H463     H      0.992410000000     0.720410000000     0.347900000000     0.0337266  
H464     H      0.982190000000     0.579420000000     0.306960000000     0.0392917  
H465     H      0.988200000000     0.807120000000     0.081140000000     0.0146087  
H466     H      0.914150000000     0.759010000000     0.221400000000     0.045748   
H467     H      0.984790000000     0.898280000000     0.167740000000     0.0381226  
H468     H      0.052480000000     0.720630000000     0.259920000000     0.0443916  
H469     H      0.018500000000     0.838680000000     0.190970000000     0.0387682  
H470     H      0.982540000000     0.666490000000     0.399230000000     0.0389     
H471     H      0.948310000000     0.639970000000     0.286890000000     0.0394948  
H472     H      0.948500000000     0.690110000000     0.339890000000     0.0377759  
H473     H      0.042070000000     0.772050000000     0.208680000000     0.0404444  
H474     H      0.018440000000     0.785400000000     0.141160000000     0.0495614  
H475     H      0.029940000000     0.603810000000     0.309390000000     0.0404092  
H476     H      0.913690000000     0.814630000000     0.122630000000     0.153585   
H477     H      0.916830000000     0.272160000000     0.260250000000     0.0410451  
H478     H      0.967740000000     0.220550000000     0.121000000000     0.0357276  
H479     H      0.964840000000     0.133530000000     0.212890000000     0.0500406  
H480     H      0.022020000000     0.373820000000     0.301140000000     0.0407289  
H481     H      0.930540000000     0.165310000000     0.093590000000     0.0464559  
H482     H      0.985610000000     0.255120000000     0.334370000000     0.0340739  
H483     H      0.983190000000     0.346750000000     0.247190000000     0.0354817  
H484     H      0.976260000000     0.306230000000     0.388560000000     0.0399094  
H485     H      0.976090000000     0.079550000000     0.161790000000     7.02812e-05
H486     H      0.906210000000     0.220890000000     0.208830000000     0.0476474  
H487     H      0.978690000000     0.166950000000     0.069870000000     0.036492   
H488     H      0.044680000000     0.258350000000     0.247770000000     0.0462439  
H489     H      0.011310000000     0.190050000000     0.130190000000     0.0372369  
H490     H      0.974110000000     0.398050000000     0.301380000000     0.040262   
H491     H      0.941510000000     0.285670000000     0.328680000000     0.0370137  
H492     H      0.940140000000     0.338430000000     0.278660000000     0.0369541  
H493     H      0.034100000000     0.206960000000     0.196560000000     0.0401268  
H494     H      0.009310000000     0.139370000000     0.183060000000     0.0465111  
H495     H      0.023650000000     0.308550000000     0.363460000000     0.0402393  
H496     H      0.914740000000     0.085590000000     0.181440000000     0.137479   
N1       N      0.483960000000     0.111990000000     0.350110000000    -0.179662   
N2       N      0.489890000000     0.169850000000     0.288920000000    -0.100329   
N3       N      0.466370000000     0.289650000000     0.169780000000    -0.11339    
N4       N      0.474530000000     0.350800000000     0.111970000000    -0.16522    
N5       N      0.476050000000     0.850430000000     0.359630000000    -0.186582   
N6       N      0.469960000000     0.788090000000     0.303080000000    -0.100056   
N7       N      0.492430000000     0.668000000000     0.182150000000    -0.112494   
N8       N      0.488750000000     0.611510000000     0.119560000000    -0.167855   
N9       N      0.499380000000     0.619420000000     0.857750000000    -0.186526   
N10      N      0.505770000000     0.680570000000     0.799600000000    -0.106946   
N11      N      0.477500000000     0.800250000000     0.681540000000    -0.113504   
N12      N      0.482760000000     0.858120000000     0.620310000000    -0.166364   
N13      N      0.485570000000     0.119450000000     0.611130000000    -0.186657   
N14      N      0.479760000000     0.181870000000     0.667520000000    -0.0998802  
N15      N      0.499770000000     0.302460000000     0.788420000000    -0.112509   
N16      N      0.493090000000     0.358960000000     0.850790000000    -0.168124   
N17      N      0.617630000000     0.114510000000     0.470020000000    -0.185775   
N18      N      0.677100000000     0.173970000000     0.463400000000    -0.100019   
N19      N      0.795150000000     0.293440000000     0.492070000000    -0.113106   
N20      N      0.854550000000     0.353090000000     0.487020000000    -0.166402   
N21      N      0.855210000000     0.614860000000     0.484820000000    -0.185199   
N22      N      0.795760000000     0.674290000000     0.477790000000    -0.100112   
N23      N      0.676760000000     0.794550000000     0.499460000000    -0.113695   
N24      N      0.617120000000     0.853760000000     0.490800000000    -0.166605   
N25      N      0.116990000000     0.352680000000     0.473220000000    -0.186      
N26      N      0.176770000000     0.293470000000     0.468280000000    -0.0999327  
N27      N      0.296540000000     0.176200000000     0.498800000000    -0.113116   
N28      N      0.355880000000     0.116470000000     0.493140000000    -0.165906   
N29      N      0.117760000000     0.613840000000     0.493720000000    -0.185139   
N30      N      0.177310000000     0.673140000000     0.502280000000    -0.10028    
N31      N      0.295170000000     0.794520000000     0.480090000000    -0.113169   
N32      N      0.354550000000     0.854130000000     0.487530000000    -0.165967   
N33      N      0.851810000000     0.491890000000     0.356550000000    -0.185266   
N34      N      0.790630000000     0.496000000000     0.298430000000    -0.100022   
N35      N      0.671250000000     0.464910000000     0.180500000000    -0.113273   
N36      N      0.612910000000     0.471060000000     0.119530000000    -0.165932   
N37      N      0.114280000000     0.482820000000     0.350220000000    -0.185665   
N38      N      0.172100000000     0.477770000000     0.289140000000    -0.0998979  
N39      N      0.290530000000     0.503710000000     0.169340000000    -0.11359    
N40      N      0.351260000000     0.495430000000     0.111220000000    -0.166912   
N41      N      0.121110000000     0.469630000000     0.611380000000    -0.18552    
N42      N      0.182570000000     0.465190000000     0.669450000000    -0.100071   
N43      N      0.300640000000     0.498560000000     0.788360000000    -0.113202   
N44      N      0.358940000000     0.494770000000     0.849660000000    -0.166084   
N45      N      0.858310000000     0.477260000000     0.618450000000    -0.185189   
N46      N      0.800040000000     0.471940000000     0.679410000000    -0.100156   
N47      N      0.682270000000     0.500250000000     0.799670000000    -0.113347   
N48      N      0.621250000000     0.493800000000     0.857920000000    -0.165282   
N49      N      0.855810000000     0.852580000000     0.973950000000    -0.185359   
N50      N      0.797230000000     0.792020000000     0.970440000000    -0.0992074  
N51      N      0.680390000000     0.672350000000     0.003370000000    -0.110846   
N52      N      0.620120000000     0.613370000000     0.998060000000    -0.169013   
N53      N      0.615270000000     0.352020000000     0.993230000000    -0.181971   
N54      N      0.674130000000     0.291370000000     0.997910000000    -0.100783   
N55      N      0.793180000000     0.173350000000     0.965360000000    -0.113163   
N56      N      0.853440000000     0.114100000000     0.969970000000    -0.166234   
N57      N      0.357910000000     0.619170000000     0.980820000000    -0.185321   
N58      N      0.298950000000     0.679680000000     0.977070000000    -0.0996816  
N59      N      0.178150000000     0.796320000000     0.008210000000    -0.110592   
N60      N      0.117520000000     0.855160000000     0.002200000000    -0.16515    
N61      N      0.115570000000     0.116750000000     0.981090000000    -0.181376   
N62      N      0.174410000000     0.176610000000     0.971580000000    -0.100216   
N63      N      0.293170000000     0.297760000000     0.989850000000    -0.113803   
N64      N      0.353050000000     0.356650000000     0.981330000000    -0.165926   
N65      N      0.862560000000     0.972190000000     0.846540000000    -0.185797   
N66      N      0.805200000000     0.967990000000     0.784410000000    -0.099493   
N67      N      0.685260000000     0.001130000000     0.667330000000    -0.111059   
N68      N      0.622620000000     0.996560000000     0.610420000000    -0.168473   
N69      N      0.124950000000     0.977910000000     0.862170000000    -0.185658   
N70      N      0.187320000000     0.973310000000     0.805510000000    -0.099472   
N71      N      0.303770000000     0.001550000000     0.684160000000    -0.110723   
N72      N      0.360460000000     0.994380000000     0.621850000000    -0.168707   
N73      N      0.348820000000     0.993160000000     0.360440000000    -0.182361   
N74      N      0.286680000000     0.000910000000     0.303590000000    -0.0985194  
N75      N      0.166060000000     0.975680000000     0.185530000000    -0.113035   
N76      N      0.109330000000     0.982340000000     0.123250000000    -0.166817   
N77      N      0.847380000000     0.981190000000     0.108350000000    -0.180527   
N78      N      0.785640000000     0.972420000000     0.165240000000    -0.100091   
N79      N      0.666990000000     0.992100000000     0.286130000000    -0.11317    
N80      N      0.610740000000     0.983710000000     0.348470000000    -0.164907   
N81      N      0.984830000000     0.348310000000     0.611440000000    -0.185009   
N82      N      0.980240000000     0.287300000000     0.669530000000    -0.0992348  
N83      N      0.007620000000     0.169420000000     0.789640000000    -0.111442   
N84      N      0.000080000000     0.111370000000     0.850650000000    -0.164711   
N85      N      0.998730000000     0.849830000000     0.858870000000    -0.183262   
N86      N      0.006420000000     0.788200000000     0.801510000000    -0.0983136  
N87      N      0.002030000000     0.670110000000     0.676770000000    -0.110413   
N88      N      0.992030000000     0.609560000000     0.618930000000    -0.168118   
N89      N      0.975760000000     0.856950000000     0.119230000000    -0.185386   
N90      N      0.969650000000     0.798630000000     0.180370000000    -0.106141   
N91      N      0.997050000000     0.679560000000     0.299470000000    -0.113581   
N92      N      0.991440000000     0.618330000000     0.357460000000    -0.165698   
N93      N      0.969260000000     0.118580000000     0.111430000000    -0.181309   
N94      N      0.961590000000     0.179690000000     0.169290000000    -0.100284   
N95      N      0.989390000000     0.298620000000     0.288180000000    -0.113271   
N96      N      0.984930000000     0.356520000000     0.349360000000    -0.165594   
O1       O      0.978070000000     0.099360000000     0.046360000000    -0.377824   
O2       O      0.981130000000     0.873050000000     0.053010000000    -0.3715     
O3       O      0.914090000000     0.985300000000     0.093880000000    -0.372365   
O4       O      0.044200000000     0.985900000000     0.102010000000    -0.377538   
O5       O      0.095210000000     0.985440000000     0.056530000000    -0.378495   
O6       O      0.868260000000     0.983990000000     0.043180000000    -0.376637   
O7       O      0.979080000000     0.922490000000     0.099950000000    -0.373708   
O8       O      0.975680000000     0.052430000000     0.095800000000    -0.375622   
O9       O      0.024020000000     0.945670000000     0.028600000000    -0.506718   
O10      O      0.942440000000     0.025530000000     0.021700000000    -0.504571   
O11      O      0.942960000000     0.944810000000     0.023950000000    -0.6518     
O12      O      0.023710000000     0.026840000000     0.026810000000    -0.646415   
O13      O      0.988840000000     0.869410000000     0.923310000000    -0.372964   
O14      O      0.991500000000     0.095600000000     0.916660000000    -0.371951   
O15      O      0.872590000000     0.918640000000     0.978000000000    -0.377419   
O16      O      0.099370000000     0.920690000000     0.995710000000    -0.374683   
O17      O      0.098590000000     0.050770000000     0.986880000000    -0.377916   
O18      O      0.871540000000     0.048440000000     0.975490000000    -0.37754    
O19      O      0.927690000000     0.977850000000     0.867570000000    -0.378585   
O20      O      0.058000000000     0.981140000000     0.876090000000    -0.377952   
O21      O      0.876660000000     0.978770000000     0.913060000000    -0.379523   
O22      O      0.103540000000     0.982670000000     0.926980000000    -0.377313   
O23      O      0.921350000000     0.870970000000     0.981370000000    -0.375338   
O24      O      0.919540000000     0.097020000000     0.976250000000    -0.376981   
O25      O      0.049660000000     0.098310000000     0.983500000000    -0.373707   
O26      O      0.051520000000     0.871970000000     0.994060000000    -0.373049   
O27      O      0.996890000000     0.916140000000     0.874180000000    -0.380932   
O28      O      0.994800000000     0.046050000000     0.869910000000    -0.376383   
O29      O      0.028110000000     0.023970000000     0.945900000000    -0.504399   
O30      O      0.948060000000     0.942740000000     0.943300000000    -0.507535   
O31      O      0.947210000000     0.023380000000     0.940480000000    -0.648851   
O32      O      0.029090000000     0.943170000000     0.948280000000    -0.650312   
O33      O      0.984260000000     0.372360000000     0.415820000000    -0.377309   
O34      O      0.988360000000     0.598670000000     0.422930000000    -0.375581   
O35      O      0.918330000000     0.488300000000     0.372620000000    -0.382032   
O36      O      0.048720000000     0.485680000000     0.369670000000    -0.380404   
O37      O      0.098340000000     0.485020000000     0.416660000000    -0.379922   
O38      O      0.871060000000     0.486330000000     0.421940000000    -0.379201   
O39      O      0.986990000000     0.552010000000     0.373200000000    -0.37709    
O40      O      0.983280000000     0.421960000000     0.368990000000    -0.377798   
O41      O      0.025960000000     0.525120000000     0.444240000000    -0.505102   
O42      O      0.944380000000     0.444300000000     0.443480000000    -0.505329   
O43      O      0.944890000000     0.525320000000     0.446010000000    -0.654373   
O44      O      0.025570000000     0.444350000000     0.441840000000    -0.652365   
O45      O      0.983830000000     0.593860000000     0.553270000000    -0.376496   
O46      O      0.987210000000     0.368020000000     0.545930000000    -0.379633   
O47      O      0.872820000000     0.548940000000     0.487990000000    -0.380611   
O48      O      0.100030000000     0.548290000000     0.486090000000    -0.381706   
O49      O      0.099420000000     0.418360000000     0.478520000000    -0.381095   
O50      O      0.872330000000     0.418990000000     0.485370000000    -0.377252   
O51      O      0.924000000000     0.480450000000     0.599180000000    -0.380532   
O52      O      0.054570000000     0.475330000000     0.595720000000    -0.375571   
O53      O      0.874390000000     0.481880000000     0.552150000000    -0.377889   
O54      O      0.101670000000     0.477490000000     0.546300000000    -0.381111   
O55      O      0.921330000000     0.597000000000     0.486970000000    -0.37898    
O56      O      0.920580000000     0.370690000000     0.483130000000    -0.379641   
O57      O      0.051010000000     0.370190000000     0.478860000000    -0.377758   
O58      O      0.051630000000     0.596390000000     0.489530000000    -0.37837    
O59      O      0.993280000000     0.544440000000     0.599470000000    -0.381565   
O60      O      0.987530000000     0.414700000000     0.595660000000    -0.378686   
O61      O      0.027860000000     0.441490000000     0.522510000000    -0.505388   
O62      O      0.946750000000     0.522600000000     0.527340000000    -0.505598   
O63      O      0.946630000000     0.442090000000     0.524370000000    -0.653782   
O64      O      0.027980000000     0.522430000000     0.525210000000    -0.652606   
O65      O      0.596220000000     0.982460000000     0.415280000000    -0.376247   
O66      O      0.369220000000     0.987950000000     0.425510000000    -0.379175   
O67      O      0.475910000000     0.916810000000     0.374570000000    -0.384395   
O68      O      0.481990000000     0.046610000000     0.369930000000    -0.36918    
O69      O      0.483640000000     0.096210000000     0.416690000000    -0.378319   
O70      O      0.486310000000     0.870510000000     0.423720000000    -0.377757   
O71      O      0.415430000000     0.987010000000     0.375230000000    -0.374294   
O72      O      0.545590000000     0.981070000000     0.369310000000    -0.37658    
O73      O      0.443550000000     0.024470000000     0.445560000000    -0.504076   
O74      O      0.524620000000     0.943170000000     0.444130000000    -0.506496   
O75      O      0.443330000000     0.943560000000     0.447950000000    -0.653536   
O76      O      0.524790000000     0.023570000000     0.441940000000    -0.654776   
O77      O      0.375030000000     0.988100000000     0.555320000000    -0.378114   
O78      O      0.602040000000     0.989980000000     0.545540000000    -0.376496   
O79      O      0.420650000000     0.871990000000     0.488810000000    -0.376741   
O80      O      0.421620000000     0.098440000000     0.486400000000    -0.377408   
O81      O      0.551810000000     0.097300000000     0.477360000000    -0.381047   
O82      O      0.550980000000     0.871550000000     0.488590000000    -0.378029   
O83      O      0.487580000000     0.923380000000     0.600700000000    -0.378496   
O84      O      0.485620000000     0.053230000000     0.596160000000    -0.381021   
O85      O      0.484760000000     0.873910000000     0.553850000000    -0.376577   
O86      O      0.492100000000     0.099680000000     0.546480000000    -0.377772   
O87      O      0.372150000000     0.920120000000     0.490160000000    -0.378662   
O88      O      0.599500000000     0.919440000000     0.484660000000    -0.379619   
O89      O      0.599980000000     0.048930000000     0.476950000000    -0.376828   
O90      O      0.373030000000     0.050550000000     0.490130000000    -0.375183   
O91      O      0.425560000000     0.989710000000     0.601300000000    -0.376316   
O92      O      0.555770000000     0.991440000000     0.595820000000    -0.379231   
O93      O      0.528430000000     0.026280000000     0.522900000000    -0.504727   
O94      O      0.446830000000     0.945800000000     0.528800000000    -0.506918   
O95      O      0.528240000000     0.945520000000     0.525710000000    -0.653886   
O96      O      0.447520000000     0.026520000000     0.525840000000    -0.653238   
O97      O      0.371590000000     0.422460000000     0.980490000000    -0.377839   
O98      O      0.598970000000     0.418210000000     0.988570000000    -0.379067   
O99      O      0.491290000000     0.374160000000     0.917070000000    -0.38117    
O100     O      0.481050000000     0.370280000000     0.046730000000    -0.372081   
O101     O      0.479010000000     0.417150000000     0.096240000000    -0.377192   
O102     O      0.486430000000     0.423630000000     0.870190000000    -0.378902   
O103     O      0.549620000000     0.371030000000     0.987890000000    -0.372685   
O104     O      0.419360000000     0.373580000000     0.979640000000    -0.377996   
O105     O      0.524800000000     0.443230000000     0.025400000000    -0.505906   
O106     O      0.446180000000     0.446560000000     0.941940000000    -0.507439   
O107     O      0.527730000000     0.445310000000     0.944380000000    -0.651324   
O108     O      0.443490000000     0.444660000000     0.022720000000    -0.651364   
O109     O      0.601510000000     0.547880000000     0.992320000000    -0.378511   
O110     O      0.374450000000     0.552950000000     0.981930000000    -0.378915   
O111     O      0.554780000000     0.489510000000     0.873780000000    -0.373256   
O112     O      0.547480000000     0.477900000000     0.100150000000    -0.377053   
O113     O      0.417380000000     0.487620000000     0.095550000000    -0.377568   
O114     O      0.424550000000     0.491060000000     0.869360000000    -0.376478   
O115     O      0.493900000000     0.600210000000     0.923180000000    -0.377912   
O116     O      0.490340000000     0.596380000000     0.053230000000    -0.378379   
O117     O      0.493180000000     0.553340000000     0.873640000000    -0.371028   
O118     O      0.482270000000     0.546940000000     0.099670000000    -0.378054   
O119     O      0.601900000000     0.487590000000     0.923260000000    -0.377711   
O120     O      0.374660000000     0.489830000000     0.916030000000    -0.378645   
O121     O      0.370570000000     0.490120000000     0.045860000000    -0.37642    
O122     O      0.597370000000     0.478220000000     0.053430000000    -0.374681   
O123     O      0.554050000000     0.596940000000     0.991300000000    -0.376537   
O124     O      0.423670000000     0.600170000000     0.985970000000    -0.379061   
O125     O      0.445370000000     0.525440000000     0.024850000000    -0.505271   
O126     O      0.528920000000     0.525880000000     0.946940000000    -0.506613   
O127     O      0.447930000000     0.528010000000     0.944280000000    -0.653515   
O128     O      0.526500000000     0.523560000000     0.027930000000    -0.650399   
O129     O      0.529660000000     0.091590000000     0.300910000000    -0.275341   
O130     O      0.409380000000     0.844210000000     0.337870000000    -0.281786   
O131     O      0.545600000000     0.599560000000     0.807840000000    -0.283823   
O132     O      0.419130000000     0.124990000000     0.633770000000    -0.281229   
O133     O      0.601620000000     0.162440000000     0.421050000000    -0.281089   
O134     O      0.805510000000     0.597120000000     0.438090000000    -0.281822   
O135     O      0.165440000000     0.367910000000     0.424350000000    -0.281129   
O136     O      0.167160000000     0.594890000000     0.540290000000    -0.282607   
O137     O      0.865410000000     0.540910000000     0.307940000000    -0.281202   
O138     O      0.096320000000     0.435730000000     0.301100000000    -0.281741   
O139     O      0.171020000000     0.423270000000     0.593360000000    -0.282207   
O140     O      0.875010000000     0.428540000000     0.666390000000    -0.28168    
O141     O      0.870840000000     0.803890000000     0.925420000000    -0.282315   
O142     O      0.597170000000     0.302960000000     0.039870000000    -0.271547   
O143     O      0.310130000000     0.606550000000     0.930550000000    -0.282783   
O144     O      0.096610000000     0.162980000000     0.931940000000    -0.273017   
O145     O      0.813780000000     0.922780000000     0.858450000000    -0.281545   
O146     O      0.114150000000     0.927150000000     0.814660000000    -0.283124   
O147     O      0.364980000000     0.041080000000     0.311950000000    -0.271937   
O148     O      0.864580000000     0.933800000000     0.157030000000    -0.276161   
O149     O      0.938330000000     0.298610000000     0.593320000000    -0.282175   
O150     O      0.018860000000     0.788850000000     0.886740000000    -0.272948   
O151     O      0.929990000000     0.806830000000     0.099070000000    -0.283139   
O152     O      0.919080000000     0.103420000000     0.158120000000    -0.273335   
Zr1      Zr     0.981030000000     0.986630000000     0.065190000000     1.42364    
Zr2      Zr     0.986140000000     0.904060000000     0.987230000000     1.42933    
Zr3      Zr     0.984870000000     0.064840000000     0.982480000000     1.41988    
Zr4      Zr     0.905020000000     0.983810000000     0.980000000000     1.42162    
Zr5      Zr     0.066350000000     0.985400000000     0.989720000000     1.42175    
Zr6      Zr     0.990790000000     0.982040000000     0.904470000000     1.42293    
Zr7      Zr     0.984300000000     0.485970000000     0.403880000000     1.42357    
Zr8      Zr     0.986330000000     0.563790000000     0.487000000000     1.42294    
Zr9      Zr     0.985930000000     0.403060000000     0.481890000000     1.42533    
Zr10     Zr     0.905530000000     0.483830000000     0.486210000000     1.42551    
Zr11     Zr     0.066990000000     0.483360000000     0.482450000000     1.42807    
Zr12     Zr     0.988510000000     0.480660000000     0.564850000000     1.42494    
Zr13     Zr     0.481960000000     0.982670000000     0.404940000000     1.42836    
Zr14     Zr     0.405100000000     0.985240000000     0.488890000000     1.42596    
Zr15     Zr     0.566620000000     0.984400000000     0.481980000000     1.42283    
Zr16     Zr     0.485900000000     0.904740000000     0.487850000000     1.42434    
Zr17     Zr     0.486540000000     0.065210000000     0.482680000000     1.43229    
Zr18     Zr     0.489170000000     0.987310000000     0.565790000000     1.42542    
Zr19     Zr     0.485150000000     0.405010000000     0.982710000000     1.42389    
Zr20     Zr     0.567190000000     0.483740000000     0.987390000000     1.42539    
Zr21     Zr     0.405600000000     0.487070000000     0.982020000000     1.42179    
Zr22     Zr     0.488610000000     0.487620000000     0.904520000000     1.42791    
Zr23     Zr     0.483460000000     0.482980000000     0.065200000000     1.42892    
Zr24     Zr     0.488280000000     0.565780000000     0.987230000000     1.42611    


