data_structure

_audit_creation_method RASPA-1.0
_audit_creation_date 2023-5-25
_audit_author_name 'Poobodin Mano'

_cell_length_a    33.4417
_cell_length_b    33.4312
_cell_length_c    33.4883
_cell_angle_alpha 90
_cell_angle_beta  90
_cell_angle_gamma 90
_cell_volume      37439.8

_symmetry_cell_setting          triclinic
_symmetry_space_group_name_Hall 'P 1'
_symmetry_space_group_name_H-M  'P 1'
_symmetry_Int_Tables_number     1

_symmetry_equiv_pos_as_xyz 'x,y,z'

loop_
_atom_site_label
_atom_site_type_symbol
_atom_site_fract_x
_atom_site_fract_y
_atom_site_fract_z
_atom_site_charge
Br1      Br     0.554530000000     0.372130000000     0.168000000000    -0.23267    
Br2      Br     0.556370000000     0.668490000000     0.088890000000    -0.253202   
Br3      Br     0.558620000000     0.867790000000     0.661230000000    -0.237594   
Br4      Br     0.549730000000     0.301330000000     0.879400000000    -0.240397   
Br5      Br     0.801520000000     0.376780000000     0.554480000000    -0.25327    
Br6      Br     0.809910000000     0.603700000000     0.418710000000    -0.255369   
Br7      Br     0.361320000000     0.160900000000     0.557100000000    -0.256563   
Br8      Br     0.166380000000     0.586250000000     0.555510000000    -0.201029   
Br9      Br     0.662670000000     0.415870000000     0.102700000000    -0.232452   
Br10     Br     0.164780000000     0.558630000000     0.377210000000    -0.24386    
Br11     Br     0.142650000000     0.556180000000     0.615130000000    -0.196885   
Br12     Br     0.595120000000     0.416220000000     0.803550000000    -0.241035   
Br13     Br     0.807780000000     0.867140000000     0.057070000000    -0.23611    
Br14     Br     0.800170000000     0.093580000000     0.912770000000    -0.238398   
Br15     Br     0.304250000000     0.597590000000     0.914450000000    -0.249788   
Br16     Br     0.300160000000     0.374310000000     0.054110000000    -0.254028   
Br17     Br     0.664010000000     0.918450000000     0.594220000000    -0.239962   
Br18     Br     0.377340000000     0.905870000000     0.667640000000    -0.247827   
Br19     Br     0.301770000000     0.914570000000     0.370660000000    -0.254245   
Br20     Br     0.871170000000     0.921120000000     0.164550000000    -0.235285   
Br21     Br     0.911170000000     0.159660000000     0.861930000000    -0.23924    
Br22     Br     0.916960000000     0.590410000000     0.668190000000    -0.24888    
Br23     Br     0.030390000000     0.897370000000     0.188350000000    -0.241385   
Br24     Br     0.907270000000     0.383110000000     0.299140000000    -0.249426   
C1       C      0.982620000000     0.091840000000     0.081560000000     0.388778   
C2       C      0.993070000000     0.888430000000     0.089410000000     0.404009   
C3       C      0.881770000000     0.986410000000     0.084850000000     0.400687   
C4       C      0.085950000000     0.994120000000     0.086450000000     0.391842   
C5       C      0.991030000000     0.879320000000     0.885590000000     0.390397   
C6       C      0.981090000000     0.083120000000     0.877560000000     0.400132   
C7       C      0.886620000000     0.879740000000     0.988990000000     0.399285   
C8       C      0.090580000000     0.886460000000     0.991180000000     0.391308   
C9       C      0.084200000000     0.090090000000     0.975150000000     0.391989   
C10      C      0.880070000000     0.084230000000     0.979520000000     0.402804   
C11      C      0.883990000000     0.978350000000     0.881000000000     0.392607   
C12      C      0.088120000000     0.987930000000     0.882460000000     0.390938   
C13      C      0.975370000000     0.386540000000     0.378910000000     0.400341   
C14      C      0.985730000000     0.589880000000     0.385820000000     0.395593   
C15      C      0.881050000000     0.489910000000     0.384190000000     0.399359   
C16      C      0.085280000000     0.490960000000     0.381510000000     0.401167   
C17      C      0.984580000000     0.583980000000     0.589190000000     0.404757   
C18      C      0.988390000000     0.379690000000     0.582680000000     0.392727   
C19      C      0.886920000000     0.591010000000     0.486350000000     0.400846   
C20      C      0.090840000000     0.582780000000     0.487760000000     0.405471   
C21      C      0.082810000000     0.378860000000     0.475430000000     0.3896     
C22      C      0.879080000000     0.386150000000     0.485500000000     0.400864   
C23      C      0.884250000000     0.486950000000     0.588170000000     0.398086   
C24      C      0.087270000000     0.477070000000     0.584850000000     0.405398   
C25      C      0.584620000000     0.993000000000     0.380630000000     0.389136   
C26      C      0.380680000000     0.982430000000     0.383070000000     0.399095   
C27      C      0.485240000000     0.885440000000     0.379450000000     0.39282    
C28      C      0.473520000000     0.089350000000     0.385000000000     0.390767   
C29      C      0.383550000000     0.973880000000     0.587120000000     0.402015   
C30      C      0.587250000000     0.986340000000     0.584770000000     0.401621   
C31      C      0.385870000000     0.878560000000     0.482640000000     0.394506   
C32      C      0.377360000000     0.082490000000     0.488940000000     0.399394   
C33      C      0.581650000000     0.091140000000     0.483270000000     0.389935   
C34      C      0.590000000000     0.886940000000     0.479620000000     0.394509   
C35      C      0.489970000000     0.880090000000     0.583310000000     0.404193   
C36      C      0.480720000000     0.084120000000     0.588950000000     0.392655   
C37      C      0.381210000000     0.384110000000     0.988150000000     0.399406   
C38      C      0.584970000000     0.380710000000     0.989470000000     0.40081    
C39      C      0.483850000000     0.380310000000     0.885230000000     0.402681   
C40      C      0.486420000000     0.384750000000     0.088950000000     0.402365   
C41      C      0.589080000000     0.584910000000     0.979400000000     0.394287   
C42      C      0.384620000000     0.588340000000     0.980600000000     0.398359   
C43      C      0.588170000000     0.480880000000     0.883740000000     0.401439   
C44      C      0.586390000000     0.484560000000     0.087550000000     0.406005   
C45      C      0.382520000000     0.489240000000     0.086640000000     0.392513   
C46      C      0.383790000000     0.483270000000     0.882890000000     0.395954   
C47      C      0.485370000000     0.584620000000     0.880360000000     0.390643   
C48      C      0.488750000000     0.589350000000     0.084160000000     0.400389   
C49      C      0.476080000000     0.285680000000     0.139650000000    -0.0304935  
C50      C      0.477500000000     0.190170000000     0.337830000000    -0.0303758  
C51      C      0.460280000000     0.107880000000     0.314740000000    -0.00741468 
C52      C      0.461880000000     0.160740000000     0.369200000000    -0.0075007  
C53      C      0.509480000000     0.219490000000     0.257130000000    -0.0543301  
C54      C      0.444840000000     0.258500000000     0.221060000000    -0.0568748  
C55      C      0.470160000000     0.209720000000     0.268610000000     0.061225   
C56      C      0.476030000000     0.139660000000     0.285920000000    -0.0303071  
C57      C      0.484150000000     0.267940000000     0.209310000000     0.0649508  
C58      C      0.479680000000     0.337670000000     0.189790000000    -0.0584527  
C59      C      0.516270000000     0.248340000000     0.227700000000    -0.0520045  
C60      C      0.497030000000     0.367980000000     0.160160000000     0.118368   
C61      C      0.492560000000     0.313380000000     0.107180000000    -0.0010125  
C62      C      0.438040000000     0.229560000000     0.250440000000    -0.052237   
C63      C      0.484630000000     0.640790000000     0.182990000000    -0.0304718  
C64      C      0.491580000000     0.838510000000     0.278220000000    -0.0295172  
C65      C      0.477280000000     0.814600000000     0.360780000000    -0.00714313 
C66      C      0.476620000000     0.869750000000     0.308020000000    -0.00731981 
C67      C      0.521790000000     0.757950000000     0.246930000000    -0.0551687  
C68      C      0.455140000000     0.722210000000     0.211170000000    -0.055923   
C69      C      0.483020000000     0.769450000000     0.258650000000     0.0626075  
C70      C      0.492210000000     0.786310000000     0.328240000000    -0.0295211  
C71      C      0.493900000000     0.710390000000     0.199740000000     0.0641877  
C72      C      0.485170000000     0.690830000000     0.130740000000    -0.0589713  
C73      C      0.527040000000     0.728600000000     0.217710000000    -0.0514362  
C74      C      0.499620000000     0.660760000000     0.099400000000     0.119496   
C75      C      0.499100000000     0.608070000000     0.154650000000    -0.00129245 
C76      C      0.449890000000     0.751490000000     0.240440000000    -0.0529269  
C77      C      0.482990000000     0.778890000000     0.630610000000    -0.0306268  
C78      C      0.491210000000     0.683820000000     0.828790000000    -0.0295031  
C79      C      0.476090000000     0.600220000000     0.808930000000    -0.00752725 
C80      C      0.476600000000     0.655430000000     0.861510000000    -0.00770044 
C81      C      0.520730000000     0.711600000000     0.746850000000    -0.0542141  
C82      C      0.454140000000     0.748250000000     0.711860000000    -0.055901   
C83      C      0.481980000000     0.700650000000     0.759190000000     0.0622548  
C84      C      0.490710000000     0.631470000000     0.778940000000    -0.0294668  
C85      C      0.492880000000     0.759200000000     0.699570000000     0.0656514  
C86      C      0.485570000000     0.829200000000     0.682470000000    -0.0595198  
C87      C      0.525980000000     0.740620000000     0.717270000000    -0.0516016  
C88      C      0.501310000000     0.861150000000     0.653730000000     0.120068   
C89      C      0.497950000000     0.808260000000     0.598850000000     0.000302317
C90      C      0.448870000000     0.719170000000     0.741420000000    -0.0510445  
C91      C      0.474540000000     0.328020000000     0.786680000000    -0.0272922  
C92      C      0.487260000000     0.130750000000     0.690520000000    -0.029206   
C93      C      0.471470000000     0.154700000000     0.608230000000    -0.0119691  
C94      C      0.472950000000     0.099210000000     0.660660000000    -0.00751857 
C95      C      0.515220000000     0.212290000000     0.721970000000    -0.0542633  
C96      C      0.447780000000     0.245540000000     0.758660000000    -0.0559043  
C97      C      0.476770000000     0.199470000000     0.710600000000     0.0632304  
C98      C      0.486050000000     0.183150000000     0.640810000000    -0.0267067  
C99      C      0.486210000000     0.258740000000     0.769630000000     0.0655643  
C100     C      0.478040000000     0.278270000000     0.838860000000    -0.0581378  
C101     C      0.519760000000     0.241740000000     0.751230000000    -0.0506722  
C102     C      0.492750000000     0.308690000000     0.869810000000     0.118838   
C103     C      0.489190000000     0.361280000000     0.814310000000    -0.00652007 
C104     C      0.443230000000     0.216170000000     0.729310000000    -0.0520385  
C105     C      0.826450000000     0.287690000000     0.477040000000    -0.0307663  
C106     C      0.628250000000     0.192780000000     0.489990000000    -0.0301757  
C107     C      0.651700000000     0.110790000000     0.471530000000    -0.0073951  
C108     C      0.596350000000     0.163130000000     0.475930000000    -0.00715409 
C109     C      0.713440000000     0.232230000000     0.445210000000    -0.0521314  
C110     C      0.740020000000     0.252290000000     0.521800000000    -0.0516874  
C111     C      0.696760000000     0.213090000000     0.478490000000     0.0618244  
C112     C      0.680630000000     0.143040000000     0.485950000000    -0.029795   
C113     C      0.756960000000     0.271140000000     0.488510000000     0.0650021  
C114     C      0.777150000000     0.340410000000     0.481450000000    -0.0587365  
C115     C      0.743280000000     0.261100000000     0.450050000000    -0.0564728  
C116     C      0.807760000000     0.370680000000     0.497030000000     0.119817   
C117     C      0.859980000000     0.315130000000     0.491660000000    -0.000460798
C118     C      0.710150000000     0.223490000000     0.516980000000    -0.0544803  
C119     C      0.841270000000     0.693560000000     0.492760000000    -0.0307226  
C120     C      0.643230000000     0.787920000000     0.474820000000    -0.0283707  
C121     C      0.662170000000     0.872810000000     0.482660000000    -0.0117506  
C122     C      0.610120000000     0.816620000000     0.487830000000    -0.00744191 
C123     C      0.730400000000     0.756980000000     0.519600000000    -0.0517846  
C124     C      0.755750000000     0.730150000000     0.444690000000    -0.0510284  
C125     C      0.713120000000     0.773040000000     0.485010000000     0.0638862  
C126     C      0.692090000000     0.840740000000     0.469860000000    -0.0260778  
C127     C      0.772960000000     0.714060000000     0.479250000000     0.0650286  
C128     C      0.788540000000     0.644260000000     0.490260000000    -0.0589907  
C129     C      0.760020000000     0.727620000000     0.516890000000    -0.0554408  
C130     C      0.816800000000     0.611320000000     0.475880000000     0.12045    
C131     C      0.873000000000     0.663170000000     0.479840000000    -0.000549154
C132     C      0.726000000000     0.759350000000     0.447390000000    -0.0550469  
C133     C      0.275810000000     0.127920000000     0.479000000000    -0.0302199  
C134     C      0.180760000000     0.326260000000     0.479820000000    -0.0297484  
C135     C      0.097280000000     0.307350000000     0.463330000000    -0.00752783 
C136     C      0.153070000000     0.359010000000     0.464010000000    -0.00789741 
C137     C      0.216230000000     0.237650000000     0.440820000000    -0.0529386  
C138     C      0.235130000000     0.215180000000     0.519010000000    -0.0520646  
C139     C      0.196700000000     0.256170000000     0.472880000000     0.0615334  
C140     C      0.127600000000     0.276980000000     0.479120000000    -0.0299506  
C141     C      0.254810000000     0.196830000000     0.486970000000     0.0642183  
C142     C      0.325180000000     0.180750000000     0.482560000000    -0.0587767  
C143     C      0.245100000000     0.208220000000     0.447670000000    -0.0566348  
C144     C      0.356970000000     0.152710000000     0.499750000000     0.119758   
C145     C      0.305140000000     0.096860000000     0.495430000000    -0.00163022 
C146     C      0.206310000000     0.244630000000     0.512170000000    -0.0549977  
C147     C      0.145710000000     0.679790000000     0.503200000000    -0.0327188  
C148     C      0.339630000000     0.775840000000     0.482720000000    -0.0293425  
C149     C      0.314950000000     0.859520000000     0.478770000000    -0.0109993  
C150     C      0.370670000000     0.807370000000     0.470970000000    -0.00639158 
C151     C      0.250330000000     0.745040000000     0.437910000000    -0.0515528  
C152     C      0.230400000000     0.710320000000     0.511210000000    -0.0554744  
C153     C      0.270270000000     0.757290000000     0.472600000000     0.0634876  
C154     C      0.287510000000     0.825080000000     0.490700000000    -0.0266305  
C155     C      0.210170000000     0.698350000000     0.476290000000     0.0646494  
C156     C      0.194740000000     0.628080000000     0.485380000000    -0.0587581  
C157     C      0.220540000000     0.715790000000     0.439730000000    -0.0521119  
C158     C      0.162360000000     0.597650000000     0.498750000000     0.110685   
C159     C      0.109940000000     0.653450000000     0.493270000000     0.00512734 
C160     C      0.260120000000     0.739650000000     0.509410000000    -0.0538709  
C161     C      0.635050000000     0.497500000000     0.187440000000    -0.0279637  
C162     C      0.831510000000     0.484870000000     0.284170000000    -0.0305672  
C163     C      0.809520000000     0.496480000000     0.367700000000    -0.0104477  
C164     C      0.863280000000     0.499540000000     0.313460000000    -0.00383213 
C165     C      0.745670000000     0.527070000000     0.247730000000    -0.0515746  
C166     C      0.720180000000     0.450550000000     0.225660000000    -0.0499244  
C167     C      0.762160000000     0.493460000000     0.266490000000     0.0644078  
C168     C      0.780740000000     0.481950000000     0.335450000000    -0.0268142  
C169     C      0.703370000000     0.484160000000     0.207240000000     0.0665746  
C170     C      0.686380000000     0.489950000000     0.137250000000    -0.0587917  
C171     C      0.716600000000     0.522580000000     0.218150000000    -0.0558304  
C172     C      0.656910000000     0.473650000000     0.106340000000     0.120337   
C173     C      0.602370000000     0.482530000000     0.159320000000    -0.00478271 
C174     C      0.749510000000     0.455010000000     0.254960000000    -0.0541738  
C175     C      0.133980000000     0.491140000000     0.281140000000    -0.0304502  
C176     C      0.332730000000     0.497750000000     0.186850000000    -0.0290311  
C177     C      0.310850000000     0.485990000000     0.103300000000    -0.0122498  
C178     C      0.364550000000     0.482630000000     0.157720000000    -0.00742286 
C179     C      0.243910000000     0.456600000000     0.220870000000    -0.052533   
C180     C      0.222460000000     0.533290000000     0.246400000000    -0.0512444  
C181     C      0.262920000000     0.490000000000     0.204240000000     0.0633276  
C182     C      0.282230000000     0.501190000000     0.135450000000    -0.0262744  
C183     C      0.203450000000     0.499870000000     0.263030000000     0.0638787  
C184     C      0.185330000000     0.488890000000     0.332050000000    -0.0590919  
C185     C      0.214430000000     0.461340000000     0.250040000000    -0.0554256  
C186     C      0.156260000000     0.502380000000     0.364720000000     0.119154   
C187     C      0.102180000000     0.504780000000     0.311010000000    -0.00190309 
C188     C      0.251980000000     0.528530000000     0.217220000000    -0.0554134  
C189     C      0.172880000000     0.444370000000     0.647580000000    -0.0299917  
C190     C      0.336350000000     0.492940000000     0.782310000000    -0.0280047  
C191     C      0.314010000000     0.470920000000     0.863620000000    -0.00773083 
C192     C      0.362070000000     0.507450000000     0.817170000000    -0.00871236 
C193     C      0.224940000000     0.485570000000     0.772420000000    -0.0510738  
C194     C      0.247760000000     0.473010000000     0.693340000000    -0.0498756  
C195     C      0.265680000000     0.480800000000     0.763510000000     0.0634733  
C196     C      0.292730000000     0.455670000000     0.826280000000    -0.0280516  
C197     C      0.207100000000     0.478430000000     0.702220000000     0.0647624  
C198     C      0.140200000000     0.500610000000     0.679550000000    -0.0554638  
C199     C      0.195910000000     0.483040000000     0.742620000000    -0.0525744  
C200     C      0.117230000000     0.511210000000     0.641610000000     0.109467   
C201     C      0.152930000000     0.453400000000     0.607420000000    -0.000446455
C202     C      0.276590000000     0.472900000000     0.723520000000    -0.053236   
C203     C      0.689700000000     0.484940000000     0.835820000000    -0.0301275  
C204     C      0.836060000000     0.488390000000     0.690070000000    -0.0289223  
C205     C      0.812950000000     0.487230000000     0.605880000000    -0.00985964 
C206     C      0.867890000000     0.477590000000     0.659130000000    -0.00480489 
C207     C      0.753340000000     0.510460000000     0.724900000000    -0.0552707  
C208     C      0.721990000000     0.436750000000     0.749100000000    -0.050332   
C209     C      0.767000000000     0.474880000000     0.706950000000     0.0647857  
C210     C      0.784810000000     0.497320000000     0.640370000000    -0.0260707  
C211     C      0.708100000000     0.471970000000     0.766910000000     0.0652226  
C212     C      0.639230000000     0.486440000000     0.784280000000    -0.0583851  
C213     C      0.723900000000     0.509020000000     0.754570000000    -0.0548265  
C214     C      0.606220000000     0.472590000000     0.812760000000     0.118854   
C215     C      0.659590000000     0.472140000000     0.867760000000    -0.00143817 
C216     C      0.751170000000     0.438190000000     0.719370000000    -0.0515477  
C217     C      0.839660000000     0.778430000000     0.982160000000    -0.029511   
C218     C      0.640360000000     0.684010000000     0.984650000000    -0.0332542  
C219     C      0.660620000000     0.600520000000     0.969620000000    -0.00570357 
C220     C      0.608030000000     0.655620000000     0.969080000000    -0.00459487 
C221     C      0.729400000000     0.719130000000     0.945000000000    -0.0523223  
C222     C      0.751400000000     0.740310000000     0.022730000000    -0.0489153  
C223     C      0.710400000000     0.700780000000     0.977480000000     0.0609053  
C224     C      0.690310000000     0.631610000000     0.985210000000    -0.0322751  
C225     C      0.770330000000     0.758720000000     0.990250000000     0.0629074  
C226     C      0.787590000000     0.828690000000     0.983720000000    -0.0578573  
C227     C      0.759100000000     0.747910000000     0.951190000000    -0.0557487  
C228     C      0.816070000000     0.860650000000     0.999930000000     0.116551   
C229     C      0.871120000000     0.807910000000     0.997690000000    -0.0038008  
C230     C      0.721670000000     0.711570000000     0.016550000000    -0.0527957  
C231     C      0.828590000000     0.182990000000     0.988540000000    -0.029628   
C232     C      0.631270000000     0.279140000000     0.983640000000    -0.0296293  
C233     C      0.655860000000     0.361790000000     0.997040000000    -0.0116626  
C234     C      0.600540000000     0.309220000000     0.999110000000    -0.00648342 
C235     C      0.718250000000     0.240580000000     0.023770000000    -0.0505635  
C236     C      0.740690000000     0.218360000000     0.946460000000    -0.048962   
C237     C      0.700350000000     0.259270000000     0.990890000000     0.063472   
C238     C      0.683590000000     0.329040000000     0.981480000000    -0.0268418  
C239     C      0.758970000000     0.200050000000     0.979330000000     0.0640807  
C240     C      0.778720000000     0.130660000000     0.986320000000    -0.0599294  
C241     C      0.747290000000     0.211090000000     0.018170000000    -0.0534765  
C242     C      0.808510000000     0.100010000000     0.969910000000     0.119526   
C243     C      0.861250000000     0.155240000000     0.972780000000    -0.00491541 
C244     C      0.711520000000     0.247690000000     0.952040000000    -0.0544275  
C245     C      0.337630000000     0.689480000000     0.986650000000    -0.0323469  
C246     C      0.141090000000     0.787210000000     0.987650000000    -0.0338577  
C247     C      0.162260000000     0.870790000000     0.000850000000    -0.00258258 
C248     C      0.109480000000     0.816100000000     0.003610000000    -0.0020751  
C249     C      0.229630000000     0.750620000000     0.025470000000    -0.0507914  
C250     C      0.249850000000     0.728660000000     0.947470000000    -0.0516878  
C251     C      0.210920000000     0.769680000000     0.993240000000     0.0588772  
C252     C      0.191500000000     0.839190000000     0.985230000000    -0.0336637  
C253     C      0.268510000000     0.709550000000     0.979700000000     0.0624329  
C254     C      0.285340000000     0.639410000000     0.986660000000    -0.06047    
C255     C      0.258180000000     0.720790000000     0.018900000000    -0.0548185  
C256     C      0.313690000000     0.606890000000     0.971060000000     0.119016   
C257     C      0.368650000000     0.659830000000     0.970860000000    -0.00122087 
C258     C      0.221250000000     0.758450000000     0.954030000000    -0.0541628  
C259     C      0.330530000000     0.284960000000     0.979160000000    -0.0297392  
C260     C      0.131420000000     0.190860000000     0.978450000000    -0.0323133  
C261     C      0.154640000000     0.108370000000     0.962450000000    -0.00669917 
C262     C      0.100140000000     0.161310000000     0.962880000000    -0.00690708 
C263     C      0.220050000000     0.228880000000     0.939690000000    -0.0527417  
C264     C      0.241230000000     0.249080000000     0.017910000000    -0.0505235  
C265     C      0.200880000000     0.210010000000     0.971760000000     0.0598735  
C266     C      0.183320000000     0.140210000000     0.978200000000    -0.0321418  
C267     C      0.260560000000     0.267760000000     0.985850000000     0.0626012  
C268     C      0.280400000000     0.337160000000     0.980010000000    -0.0583754  
C269     C      0.249640000000     0.257580000000     0.946530000000    -0.0564344  
C270     C      0.309680000000     0.367880000000     0.997160000000     0.118401   
C271     C      0.362700000000     0.312970000000     0.995710000000    -0.00362932 
C272     C      0.211620000000     0.220430000000     0.011070000000    -0.0535088  
C273     C      0.637980000000     0.994510000000     0.684620000000    -0.0287767  
C274     C      0.835150000000     0.972110000000     0.779840000000    -0.0280459  
C275     C      0.812750000000     0.983210000000     0.863380000000    -0.0141528  
C276     C      0.867460000000     0.984660000000     0.809650000000    -0.00922676 
C277     C      0.750450000000     0.019460000000     0.744560000000    -0.0500083  
C278     C      0.722750000000     0.944740000000     0.719250000000    -0.0504799  
C279     C      0.766320000000     0.984630000000     0.761620000000     0.0625029  
C280     C      0.783840000000     0.970630000000     0.830390000000    -0.025365   
C281     C      0.706610000000     0.979560000000     0.702490000000     0.0645141  
C282     C      0.688360000000     0.990080000000     0.633200000000    -0.0596753  
C283     C      0.720910000000     0.017080000000     0.715120000000    -0.053942   
C284     C      0.658290000000     0.975880000000     0.601760000000     0.119348   
C285     C      0.604660000000     0.981620000000     0.656090000000    -0.00691482 
C286     C      0.752440000000     0.947100000000     0.748510000000    -0.0543092  
C287     C      0.284220000000     0.977090000000     0.636920000000    -0.0327796  
C288     C      0.188570000000     0.981420000000     0.834440000000    -0.0298497  
C289     C      0.105780000000     0.996070000000     0.811270000000    -0.00931579 
C290     C      0.159270000000     0.998090000000     0.865320000000    -0.00896986 
C291     C      0.226330000000     0.018220000000     0.745400000000    -0.0511708  
C292     C      0.247660000000     0.939650000000     0.726220000000    -0.0518024  
C293     C      0.207440000000     0.986340000000     0.764890000000     0.0600338  
C294     C      0.137670000000     0.979490000000     0.783030000000    -0.0296222  
C295     C      0.266450000000     0.971540000000     0.706620000000     0.0625449  
C296     C      0.335980000000     0.978200000000     0.687590000000    -0.0612307  
C297     C      0.255610000000     0.011030000000     0.716510000000    -0.0550354  
C298     C      0.367610000000     0.962520000000     0.658360000000     0.12053    
C299     C      0.313040000000     0.961040000000     0.605320000000    -0.000379304
C300     C      0.218390000000     0.946840000000     0.755150000000    -0.0548493  
C301     C      0.331070000000     0.992560000000     0.283560000000    -0.0322357  
C302     C      0.133750000000     0.988740000000     0.186840000000    -0.0329212  
C303     C      0.156570000000     0.006060000000     0.104590000000    -0.00169927 
C304     C      0.102180000000     0.004310000000     0.157710000000    -0.00271643 
C305     C      0.220530000000     0.029250000000     0.226050000000    -0.0511152  
C306     C      0.243950000000     0.951310000000     0.245310000000    -0.0508993  
C307     C      0.202920000000     0.996850000000     0.206190000000     0.059712   
C308     C      0.185540000000     0.990480000000     0.136300000000    -0.0351284  
C309     C      0.261710000000     0.983710000000     0.265000000000     0.0629095  
C310     C      0.280210000000     0.988860000000     0.334800000000    -0.060371   
C311     C      0.249670000000     0.022870000000     0.255290000000    -0.0550628  
C312     C      0.309580000000     0.972010000000     0.365610000000     0.119903   
C313     C      0.363340000000     0.976480000000     0.311650000000    -0.000824791
C314     C      0.214750000000     0.957670000000     0.216160000000    -0.05392    
C315     C      0.781220000000     0.996820000000     0.133380000000    -0.0291401  
C316     C      0.684450000000     0.989520000000     0.330610000000    -0.035229   
C317     C      0.601120000000     0.004230000000     0.309530000000    -0.00232615 
C318     C      0.655450000000     0.004150000000     0.362790000000    -0.0022105  
C319     C      0.713440000000     0.959500000000     0.249120000000    -0.0531719  
C320     C      0.750860000000     0.025910000000     0.214560000000    -0.0554082  
C321     C      0.702400000000     0.998320000000     0.261220000000     0.058608   
C322     C      0.632860000000     0.989700000000     0.279940000000    -0.0351582  
C323     C      0.761770000000     0.987090000000     0.202400000000     0.0641708  
C324     C      0.831800000000     0.994170000000     0.184810000000    -0.0594648  
C325     C      0.742840000000     0.954090000000     0.219940000000    -0.051223   
C326     C      0.863580000000     0.978200000000     0.155900000000     0.118825   
C327     C      0.810030000000     0.981260000000     0.101460000000    -0.00568569 
C328     C      0.721380000000     0.031330000000     0.243710000000    -0.0503193  
C329     C      0.989870000000     0.128910000000     0.776070000000    -0.0320557  
C330     C      0.984340000000     0.327220000000     0.680940000000    -0.0300168  
C331     C      0.998870000000     0.308020000000     0.597260000000    -0.00844122 
C332     C      0.999510000000     0.359950000000     0.652880000000    -0.00870737 
C333     C      0.953060000000     0.245170000000     0.707310000000    -0.0544781  
C334     C      0.018850000000     0.209700000000     0.744900000000    -0.0551067  
C335     C      0.992060000000     0.257220000000     0.696960000000     0.0603076  
C336     C      0.983820000000     0.277820000000     0.628070000000    -0.030076   
C337     C      0.979850000000     0.197610000000     0.755190000000     0.0629247  
C338     C      0.985070000000     0.181600000000     0.825400000000    -0.0600797  
C339     C      0.947160000000     0.215560000000     0.736150000000    -0.0512041  
C340     C      0.968800000000     0.153080000000     0.857230000000     0.118341   
C341     C      0.974500000000     0.097360000000     0.805450000000    -0.00101667 
C342     C      0.024760000000     0.239210000000     0.715940000000    -0.0513521  
C343     C      0.991440000000     0.682580000000     0.641350000000    -0.0332695  
C344     C      0.985450000000     0.777720000000     0.839390000000    -0.0335151  
C345     C      0.002060000000     0.859910000000     0.815340000000    -0.00247448 
C346     C      0.000540000000     0.807560000000     0.870610000000    -0.00249431 
C347     C      0.026970000000     0.738580000000     0.752640000000    -0.0501911  
C348     C      0.949460000000     0.717790000000     0.729160000000    -0.0520732  
C349     C      0.994180000000     0.757520000000     0.770510000000     0.0589247  
C350     C      0.986780000000     0.827560000000     0.786970000000    -0.0334336  
C351     C      0.982260000000     0.699130000000     0.711010000000     0.0629788  
C352     C      0.989370000000     0.629910000000     0.690870000000    -0.0616908  
C353     C      0.021200000000     0.709570000000     0.723150000000    -0.05513    
C354     C      0.974030000000     0.599150000000     0.660600000000     0.121287   
C355     C      0.976330000000     0.654790000000     0.608380000000     0.000649206
C356     C      0.955230000000     0.746750000000     0.758700000000    -0.0542841  
C357     C      0.010960000000     0.790580000000     0.140080000000    -0.0286322  
C358     C      0.015180000000     0.680430000000     0.329880000000    -0.0302316  
C359     C      0.956670000000     0.616510000000     0.323940000000    -0.00883784 
C360     C      0.001560000000     0.659260000000     0.367860000000    -0.00181056 
C361     C      0.992240000000     0.752800000000     0.280700000000    -0.0493612  
C362     C      0.993130000000     0.731600000000     0.200160000000    -0.0532902  
C363     C      0.988080000000     0.712260000000     0.270400000000     0.061362   
C364     C      0.969550000000     0.642650000000     0.288620000000    -0.0292202  
C365     C      0.998580000000     0.772170000000     0.210790000000     0.0646818  
C366     C      0.972640000000     0.834260000000     0.183040000000    -0.0604292  
C367     C      0.999220000000     0.781840000000     0.251620000000    -0.0529016  
C368     C      0.986080000000     0.871710000000     0.160590000000     0.120452   
C369     C      0.023290000000     0.825510000000     0.113130000000     0.000236729
C370     C      0.989150000000     0.702080000000     0.229440000000    -0.0517662  
C371     C      0.977590000000     0.288150000000     0.326440000000    -0.0325968  
C372     C      0.973610000000     0.193580000000     0.127840000000    -0.0294845  
C373     C      0.990400000000     0.111460000000     0.152110000000    -0.00981479 
C374     C      0.989120000000     0.163860000000     0.096670000000    -0.00947834 
C375     C      0.014770000000     0.232120000000     0.215480000000    -0.051408   
C376     C      0.937200000000     0.254090000000     0.237640000000    -0.0514358  
C377     C      0.982030000000     0.213830000000     0.196850000000     0.0602426  
C378     C      0.974610000000     0.143820000000     0.180220000000    -0.0290623  
C379     C      0.969950000000     0.272190000000     0.256450000000     0.0621041  
C380     C      0.978540000000     0.341120000000     0.277120000000    -0.0611026  
C381     C      0.008930000000     0.261060000000     0.245040000000    -0.0546326  
C382     C      0.963870000000     0.372280000000     0.307360000000     0.120081   
C383     C      0.962740000000     0.316410000000     0.359160000000    -0.00112752 
C384     C      0.943040000000     0.225110000000     0.208090000000    -0.0547989  
H1       H      0.929730000000     0.928450000000     0.042820000000     0.217964   
H2       H      0.040340000000     0.046830000000     0.038510000000     0.209563   
H3       H      0.926760000000     0.038180000000     0.924270000000     0.218752   
H4       H      0.045290000000     0.927750000000     0.929090000000     0.209097   
H5       H      0.928750000000     0.545620000000     0.430150000000     0.215901   
H6       H      0.038790000000     0.427720000000     0.423620000000     0.207666   
H7       H      0.926680000000     0.427840000000     0.540990000000     0.212984   
H8       H      0.044820000000     0.538330000000     0.542630000000     0.218804   
H9       H      0.428290000000     0.926940000000     0.426300000000     0.215073   
H10      H      0.537380000000     0.046010000000     0.427550000000     0.209501   
H11      H      0.544110000000     0.928640000000     0.538710000000     0.219267   
H12      H      0.424920000000     0.037860000000     0.543640000000     0.213443   
H13      H      0.541640000000     0.425180000000     0.929420000000     0.218943   
H14      H      0.426860000000     0.429590000000     0.043560000000     0.214395   
H15      H      0.429100000000     0.541090000000     0.926530000000     0.215199   
H16      H      0.543310000000     0.542310000000     0.040600000000     0.214151   
H17      H      0.407650000000     0.222380000000     0.258990000000     0.045207   
H18      H      0.484860000000     0.254420000000     0.132230000000     0.0378878  
H19      H      0.490260000000     0.345200000000     0.220410000000     0.0577877  
H20      H      0.427420000000     0.104990000000     0.310500000000     0.0386169  
H21      H      0.524660000000     0.306210000000     0.102310000000     0.0534606  
H22      H      0.467430000000     0.220780000000     0.346200000000     0.0362971  
H23      H      0.464910000000     0.132500000000     0.255410000000     0.0352402  
H24      H      0.476800000000     0.167530000000     0.398090000000     0.0400648  
H25      H      0.483940000000     0.397750000000     0.167130000000     0.0258251  
H26      H      0.419530000000     0.273320000000     0.207420000000     0.0430342  
H27      H      0.476490000000     0.306670000000     0.078890000000     0.0404917  
H28      H      0.534840000000     0.204690000000     0.270730000000     0.0425355  
H29      H      0.442820000000     0.287350000000     0.139660000000     0.0386497  
H30      H      0.474010000000     0.078730000000     0.306530000000     0.0394296  
H31      H      0.510810000000     0.189790000000     0.338080000000     0.0380035  
H32      H      0.509300000000     0.138400000000     0.285410000000     0.0375694  
H33      H      0.546660000000     0.255390000000     0.219020000000     0.0549781  
H34      H      0.446450000000     0.340080000000     0.189740000000     0.0444116  
H35      H      0.429270000000     0.165840000000     0.373290000000     0.0393236  
H36      H      0.419920000000     0.760100000000     0.249180000000     0.0473313  
H37      H      0.495280000000     0.633460000000     0.213640000000     0.0371975  
H38      H      0.495720000000     0.721280000000     0.122330000000     0.0583131  
H39      H      0.444820000000     0.809170000000     0.365610000000     0.0400246  
H40      H      0.531610000000     0.603170000000     0.159630000000     0.0482147  
H41      H      0.480680000000     0.846950000000     0.247950000000     0.0362717  
H42      H      0.481840000000     0.755520000000     0.335520000000     0.0360682  
H43      H      0.491920000000     0.898550000000     0.301460000000     0.0401676  
H44      H      0.483560000000     0.667430000000     0.071090000000     0.0259872  
H45      H      0.429050000000     0.708640000000     0.197680000000     0.0418995  
H46      H      0.483470000000     0.579820000000     0.162630000000     0.0394536  
H47      H      0.547870000000     0.771420000000     0.260530000000     0.0431175  
H48      H      0.451320000000     0.641000000000     0.183380000000     0.0373843  
H49      H      0.492960000000     0.806930000000     0.389050000000     0.0403486  
H50      H      0.524890000000     0.838830000000     0.277710000000     0.03843    
H51      H      0.525530000000     0.786270000000     0.328160000000     0.0382698  
H52      H      0.557010000000     0.719810000000     0.209140000000     0.0534686  
H53      H      0.451860000000     0.691370000000     0.130680000000     0.043537   
H54      H      0.444050000000     0.874440000000     0.303200000000     0.0409794  
H55      H      0.418910000000     0.711110000000     0.750660000000     0.0490226  
H56      H      0.492680000000     0.748230000000     0.621990000000     0.0379055  
H57      H      0.496340000000     0.836050000000     0.713190000000     0.0618842  
H58      H      0.443510000000     0.595370000000     0.804320000000     0.0400434  
H59      H      0.530150000000     0.802260000000     0.593090000000     0.0499692  
H60      H      0.480620000000     0.714540000000     0.836070000000     0.0375812  
H61      H      0.479750000000     0.622880000000     0.748750000000     0.0367428  
H62      H      0.492300000000     0.663270000000     0.889720000000     0.0415407  
H63      H      0.486940000000     0.890020000000     0.661870000000     0.0368687  
H64      H      0.428080000000     0.762270000000     0.698770000000     0.0472569  
H65      H      0.481520000000     0.802150000000     0.570620000000     0.0404967  
H66      H      0.546810000000     0.697840000000     0.760150000000     0.0429914  
H67      H      0.449680000000     0.779400000000     0.631230000000     0.0418968  
H68      H      0.491450000000     0.571470000000     0.802290000000     0.0417255  
H69      H      0.524520000000     0.684150000000     0.828600000000     0.0388129  
H70      H      0.524020000000     0.631300000000     0.778290000000     0.038432   
H71      H      0.555950000000     0.748870000000     0.708200000000     0.0549343  
H72      H      0.452280000000     0.830380000000     0.682980000000     0.0580877  
H73      H      0.444110000000     0.660600000000     0.866410000000     0.041694   
H74      H      0.413490000000     0.206540000000     0.720890000000     0.0487696  
H75      H      0.483760000000     0.335510000000     0.755610000000     0.0409841  
H76      H      0.489420000000     0.248040000000     0.846960000000     0.0583404  
H77      H      0.438900000000     0.159450000000     0.603940000000     0.0597706  
H78      H      0.521150000000     0.367120000000     0.807630000000     0.0702978  
H79      H      0.476890000000     0.121850000000     0.720830000000     0.0372977  
H80      H      0.474910000000     0.213740000000     0.633790000000     0.0396537  
H81      H      0.489300000000     0.070900000000     0.666810000000     0.0423861  
H82      H      0.477230000000     0.302090000000     0.898430000000     0.0254665  
H83      H      0.421390000000     0.258140000000     0.772520000000     0.0420168  
H84      H      0.472260000000     0.389020000000     0.807210000000     0.0453371  
H85      H      0.541610000000     0.199790000000     0.708040000000     0.0440913  
H86      H      0.441260000000     0.326800000000     0.787570000000     0.0367261  
H87      H      0.486610000000     0.162870000000     0.579810000000     0.0462474  
H88      H      0.520570000000     0.131410000000     0.690760000000     0.0389083  
H89      H      0.519350000000     0.183980000000     0.640600000000     0.0383845  
H90      H      0.549490000000     0.251590000000     0.759460000000     0.0574798  
H91      H      0.444760000000     0.276990000000     0.839770000000     0.0427841  
H92      H      0.440640000000     0.093360000000     0.665940000000     0.0424136  
H93      H      0.697790000000     0.209120000000     0.543180000000     0.0431844  
H94      H      0.833760000000     0.256480000000     0.486040000000     0.0369374  
H95      H      0.746960000000     0.348570000000     0.492890000000     0.0590411  
H96      H      0.655180000000     0.107240000000     0.438690000000     0.0371674  
H97      H      0.866300000000     0.308190000000     0.523520000000     0.0480119  
H98      H      0.619040000000     0.223360000000     0.480570000000     0.0368198  
H99      H      0.710800000000     0.136290000000     0.473620000000     0.0356844  
H100     H      0.568430000000     0.168970000000     0.493030000000     0.0406457  
H101     H      0.800900000000     0.400140000000     0.483220000000     0.0274019  
H102     H      0.750250000000     0.259810000000     0.551550000000     0.054398   
H103     H      0.887460000000     0.307970000000     0.474370000000     0.039428   
H104     H      0.703450000000     0.224480000000     0.415440000000     0.0462603  
H105     H      0.825090000000     0.288770000000     0.443810000000     0.039253   
H106     H      0.660520000000     0.081980000000     0.485610000000     0.0411779  
H107     H      0.629810000000     0.192240000000     0.523210000000     0.0390529  
H108     H      0.682570000000     0.141950000000     0.519150000000     0.0386404  
H109     H      0.755850000000     0.275320000000     0.423870000000     0.0436887  
H110     H      0.776060000000     0.342070000000     0.448240000000     0.0460272  
H111     H      0.589750000000     0.168950000000     0.443900000000     0.0376026  
H112     H      0.712910000000     0.771040000000     0.420240000000     0.0433836  
H113     H      0.850780000000     0.723750000000     0.482430000000     0.0380995  
H114     H      0.757790000000     0.637760000000     0.479250000000     0.0586489  
H115     H      0.668660000000     0.881280000000     0.514020000000     0.0622739  
H116     H      0.880700000000     0.668690000000     0.448010000000     0.0485407  
H117     H      0.636730000000     0.757930000000     0.487760000000     0.0373283  
H118     H      0.722560000000     0.850580000000     0.478980000000     0.0391017  
H119     H      0.582070000000     0.807840000000     0.472290000000     0.0407005  
H120     H      0.807910000000     0.582960000000     0.490800000000     0.0271469  
H121     H      0.765220000000     0.719710000000     0.415570000000     0.0550741  
H122     H      0.900510000000     0.668650000000     0.497690000000     0.0399829  
H123     H      0.720590000000     0.767080000000     0.548720000000     0.0520628  
H124     H      0.839520000000     0.694140000000     0.525970000000     0.0392211  
H125     H      0.667100000000     0.899860000000     0.463940000000     0.0443181  
H126     H      0.642970000000     0.785030000000     0.441670000000     0.0378247  
H127     H      0.691680000000     0.837970000000     0.436710000000     0.0371509  
H128     H      0.772580000000     0.715320000000     0.544020000000     0.0442427  
H129     H      0.787480000000     0.644170000000     0.523520000000     0.0462107  
H130     H      0.604860000000     0.812770000000     0.520400000000     0.0467986  
H131     H      0.191780000000     0.258580000000     0.537470000000     0.0421048  
H132     H      0.244980000000     0.118940000000     0.487780000000     0.0368872  
H133     H      0.331160000000     0.211760000000     0.493140000000     0.0576287  
H134     H      0.093790000000     0.302860000000     0.430610000000     0.0363411  
H135     H      0.298270000000     0.091660000000     0.527510000000     0.0487643  
H136     H      0.211730000000     0.332910000000     0.469610000000     0.0364399  
H137     H      0.118790000000     0.246740000000     0.468340000000     0.034905   
H138     H      0.161530000000     0.387660000000     0.478600000000     0.0424064  
H139     H      0.386210000000     0.161240000000     0.486420000000     0.0256862  
H140     H      0.242460000000     0.206820000000     0.549380000000     0.052979   
H141     H      0.299920000000     0.068190000000     0.479420000000     0.0401396  
H142     H      0.209210000000     0.246320000000     0.410460000000     0.0447732  
H143     H      0.277460000000     0.128020000000     0.445780000000     0.0369872  
H144     H      0.067880000000     0.300980000000     0.477480000000     0.0397383  
H145     H      0.180490000000     0.326840000000     0.513090000000     0.0387252  
H146     H      0.126550000000     0.276830000000     0.512360000000     0.0378494  
H147     H      0.260050000000     0.194640000000     0.422420000000     0.041342   
H148     H      0.327550000000     0.180850000000     0.449370000000     0.0434714  
H149     H      0.158270000000     0.362500000000     0.431400000000     0.0372842  
H150     H      0.274940000000     0.748740000000     0.536670000000     0.0440133  
H151     H      0.153860000000     0.676230000000     0.535240000000     0.0537114  
H152     H      0.219160000000     0.628970000000     0.507950000000     0.0607536  
H153     H      0.307700000000     0.868500000000     0.447700000000     0.0607827  
H154     H      0.086460000000     0.658100000000     0.516360000000     0.0413163  
H155     H      0.347860000000     0.747050000000     0.468180000000     0.0371855  
H156     H      0.256290000000     0.833290000000     0.482500000000     0.0397789  
H157     H      0.399390000000     0.799860000000     0.485950000000     0.0408661  
H158     H      0.168770000000     0.568830000000     0.483420000000     0.04186    
H159     H      0.223060000000     0.697080000000     0.539790000000     0.049675   
H160     H      0.096960000000     0.662970000000     0.464200000000     0.0432745  
H161     H      0.257740000000     0.758470000000     0.409430000000     0.0520563  
H162     H      0.137040000000     0.711540000000     0.498110000000     0.037983   
H163     H      0.308210000000     0.885520000000     0.498400000000     0.0463674  
H164     H      0.340550000000     0.771300000000     0.515670000000     0.039413   
H165     H      0.288690000000     0.820840000000     0.523680000000     0.0398405  
H166     H      0.205310000000     0.706800000000     0.412630000000     0.0528432  
H167     H      0.208590000000     0.616750000000     0.457380000000     0.0609657  
H168     H      0.375950000000     0.805430000000     0.438230000000     0.0416372  
H169     H      0.762190000000     0.428570000000     0.268640000000     0.0479228  
H170     H      0.626240000000     0.489990000000     0.218620000000     0.0409679  
H171     H      0.716700000000     0.477730000000     0.130900000000     0.0587645  
H172     H      0.803340000000     0.528550000000     0.373470000000     0.06104    
H173     H      0.594820000000     0.451320000000     0.167640000000     0.0711194  
H174     H      0.839000000000     0.496630000000     0.253970000000     0.0405226  
H175     H      0.749930000000     0.491460000000     0.343750000000     0.0401017  
H176     H      0.892030000000     0.484700000000     0.305770000000     0.053018   
H177     H      0.665160000000     0.486310000000     0.076760000000     0.0256329  
H178     H      0.710470000000     0.420820000000     0.217210000000     0.0592352  
H179     H      0.575160000000     0.501010000000     0.164270000000     0.043507   
H180     H      0.755460000000     0.556790000000     0.256100000000     0.0500375  
H181     H      0.637320000000     0.530650000000     0.185010000000     0.03831    
H182     H      0.803080000000     0.479790000000     0.395700000000     0.0485704  
H183     H      0.832170000000     0.451580000000     0.282770000000     0.0537764  
H184     H      0.781390000000     0.448660000000     0.334380000000     0.0425467  
H185     H      0.704370000000     0.548960000000     0.203950000000     0.044224   
H186     H      0.688150000000     0.523120000000     0.134520000000     0.0450354  
H187     H      0.867540000000     0.532250000000     0.309150000000     0.041567   
H188     H      0.266230000000     0.554810000000     0.204830000000     0.0426627  
H189     H      0.126000000000     0.503220000000     0.251200000000     0.0377339  
H190     H      0.216100000000     0.498750000000     0.340130000000     0.0582514  
H191     H      0.303920000000     0.454090000000     0.097240000000     0.0605489  
H192     H      0.097680000000     0.537560000000     0.307630000000     0.051842   
H193     H      0.339910000000     0.486010000000     0.217130000000     0.0365605  
H194     H      0.251290000000     0.492200000000     0.127050000000     0.0393821  
H195     H      0.393320000000     0.497620000000     0.165050000000     0.0407575  
H196     H      0.163620000000     0.485200000000     0.392190000000     0.0262616  
H197     H      0.214380000000     0.563090000000     0.256180000000     0.0531045  
H198     H      0.073490000000     0.489940000000     0.303140000000     0.0394308  
H199     H      0.252040000000     0.426790000000     0.211150000000     0.0492697  
H200     H      0.133690000000     0.457870000000     0.279310000000     0.0365936  
H201     H      0.304970000000     0.502950000000     0.075320000000     0.0468266  
H202     H      0.333840000000     0.531030000000     0.188150000000     0.0377105  
H203     H      0.283380000000     0.534480000000     0.136480000000     0.0373478  
H204     H      0.200310000000     0.435020000000     0.262480000000     0.0417445  
H205     H      0.185460000000     0.455590000000     0.330790000000     0.0427472  
H206     H      0.368890000000     0.450010000000     0.162610000000     0.0421511  
H207     H      0.307350000000     0.468260000000     0.714790000000     0.0423264  
H208     H      0.201830000000     0.429240000000     0.641400000000     0.0354795  
H209     H      0.144810000000     0.528550000000     0.697060000000     0.0577711  
H210     H      0.296900000000     0.496550000000     0.876150000000     0.0543437  
H211     H      0.174290000000     0.470210000000     0.588270000000     0.0582268  
H212     H      0.337700000000     0.516160000000     0.758540000000     0.037868   
H213     H      0.261320000000     0.448730000000     0.834660000000     0.0345692  
H214     H      0.394000000000     0.506560000000     0.807930000000     0.0415391  
H215     H      0.086490000000     0.520810000000     0.649970000000     0.0269759  
H216     H      0.257340000000     0.469510000000     0.662650000000     0.0486656  
H217     H      0.145790000000     0.424780000000     0.591990000000     0.0365999  
H218     H      0.215540000000     0.491890000000     0.802710000000     0.0474419  
H219     H      0.154010000000     0.423370000000     0.665240000000     0.0388898  
H220     H      0.314290000000     0.446670000000     0.886390000000     0.041608   
H221     H      0.349300000000     0.464640000000     0.770420000000     0.0376235  
H222     H      0.306850000000     0.427400000000     0.815720000000     0.0391404  
H223     H      0.165050000000     0.486560000000     0.751520000000     0.0424142  
H224     H      0.121640000000     0.479760000000     0.697720000000     0.0434613  
H225     H      0.354630000000     0.539310000000     0.823200000000     0.0472238  
H226     H      0.761460000000     0.410630000000     0.705830000000     0.0537549  
H227     H      0.719650000000     0.473050000000     0.844220000000     0.0380063  
H228     H      0.631630000000     0.476800000000     0.753360000000     0.058792   
H229     H      0.804960000000     0.457230000000     0.594180000000     0.0610319  
H230     H      0.664070000000     0.439840000000     0.874330000000     0.0507435  
H231     H      0.843900000000     0.473390000000     0.718720000000     0.0392641  
H232     H      0.753820000000     0.489060000000     0.631420000000     0.0407052  
H233     H      0.896040000000     0.493440000000     0.667040000000     0.054219   
H234     H      0.578540000000     0.489470000000     0.805330000000     0.0258847  
H235     H      0.709970000000     0.408100000000     0.758240000000     0.0579266  
H236     H      0.666440000000     0.488900000000     0.895630000000     0.0395868  
H237     H      0.765270000000     0.539150000000     0.715850000000     0.0448769  
H238     H      0.691640000000     0.518200000000     0.835080000000     0.0367576  
H239     H      0.807640000000     0.509010000000     0.581320000000     0.0473105  
H240     H      0.836230000000     0.521300000000     0.695340000000     0.0494541  
H241     H      0.785440000000     0.530150000000     0.646030000000     0.0414201  
H242     H      0.713410000000     0.536640000000     0.767780000000     0.0422759  
H243     H      0.640750000000     0.519730000000     0.784320000000     0.0438394  
H244     H      0.874200000000     0.444990000000     0.661230000000     0.0432198  
H245     H      0.707440000000     0.697900000000     0.042160000000     0.046806   
H246     H      0.848150000000     0.747810000000     0.992090000000     0.0367355  
H247     H      0.756650000000     0.835530000000     0.993960000000     0.0584209  
H248     H      0.665760000000     0.596280000000     0.937080000000     0.0390269  
H249     H      0.876090000000     0.802120000000     0.030010000000     0.0530465  
H250     H      0.633370000000     0.714760000000     0.973940000000     0.0405538  
H251     H      0.720800000000     0.623040000000     0.974960000000     0.0362688  
H252     H      0.579280000000     0.663590000000     0.983750000000     0.0506618  
H253     H      0.808000000000     0.889540000000     0.985580000000     0.0273292  
H254     H      0.759610000000     0.748480000000     0.052930000000     0.0559364  
H255     H      0.899780000000     0.801750000000     0.982010000000     0.0390736  
H256     H      0.721020000000     0.711160000000     0.914800000000     0.0460518  
H257     H      0.839780000000     0.778880000000     0.948900000000     0.0368607  
H258     H      0.667150000000     0.571550000000     0.984560000000     0.0409465  
H259     H      0.639630000000     0.684260000000     0.017900000000     0.0526974  
H260     H      0.690100000000     0.631210000000     0.018470000000     0.0429312  
H261     H      0.773090000000     0.761850000000     0.925590000000     0.0419993  
H262     H      0.787650000000     0.829920000000     0.950470000000     0.0441407  
H263     H      0.604280000000     0.660630000000     0.936460000000     0.039737   
H264     H      0.697950000000     0.261550000000     0.926170000000     0.0492031  
H265     H      0.835810000000     0.214100000000     0.979110000000     0.0408328  
H266     H      0.748070000000     0.122690000000     0.976020000000     0.059128   
H267     H      0.662040000000     0.366160000000     0.029290000000     0.0655034  
H268     H      0.866030000000     0.161860000000     0.940650000000     0.0693883  
H269     H      0.622960000000     0.248920000000     0.994880000000     0.0403993  
H270     H      0.714680000000     0.336230000000     0.990970000000     0.0401467  
H271     H      0.571380000000     0.302590000000     0.984590000000     0.0523768  
H272     H      0.801930000000     0.070710000000     0.984170000000     0.0262712  
H273     H      0.749350000000     0.210000000000     0.916430000000     0.0588717  
H274     H      0.889520000000     0.162440000000     0.988730000000     0.0439063  
H275     H      0.709800000000     0.249130000000     0.053800000000     0.0510136  
H276     H      0.828500000000     0.182040000000     0.021790000000     0.0385681  
H277     H      0.663370000000     0.390170000000     0.981410000000     0.0480917  
H278     H      0.630210000000     0.278420000000     0.950390000000     0.0522669  
H279     H      0.682710000000     0.328830000000     0.948230000000     0.0436507  
H280     H      0.760870000000     0.197200000000     0.044030000000     0.0426652  
H281     H      0.778780000000     0.129300000000     0.019570000000     0.0452649  
H282     H      0.596610000000     0.304610000000     0.031770000000     0.049197   
H283     H      0.207100000000     0.772550000000     0.928610000000     0.0422969  
H284     H      0.346050000000     0.719970000000     0.976250000000     0.037434   
H285     H      0.254330000000     0.632470000000     0.976730000000     0.058609   
H286     H      0.167930000000     0.875440000000     0.033240000000     0.0396417  
H287     H      0.372720000000     0.664980000000     0.938310000000     0.0484672  
H288     H      0.134040000000     0.756700000000     0.998970000000     0.0362957  
H289     H      0.222230000000     0.847630000000     0.994850000000     0.0356469  
H290     H      0.080230000000     0.807820000000     0.990180000000     0.0378295  
H291     H      0.306140000000     0.578600000000     0.986830000000     0.0265456  
H292     H      0.257450000000     0.720290000000     0.917160000000     0.053518   
H293     H      0.397690000000     0.666450000000     0.985630000000     0.0396976  
H294     H      0.221870000000     0.758820000000     0.055780000000     0.0458419  
H295     H      0.338350000000     0.689350000000     0.019900000000     0.0388654  
H296     H      0.168680000000     0.899520000000     0.985380000000     0.036806   
H297     H      0.139520000000     0.786510000000     0.954430000000     0.0386104  
H298     H      0.190740000000     0.839140000000     0.951970000000     0.0378222  
H299     H      0.272080000000     0.706470000000     0.044340000000     0.0416494  
H300     H      0.285550000000     0.638830000000     0.019920000000     0.0450752  
H301     H      0.106860000000     0.811930000000     0.036460000000     0.0386467  
H302     H      0.197320000000     0.206270000000     0.036380000000     0.041777   
H303     H      0.337600000000     0.253920000000     0.988940000000     0.036138   
H304     H      0.249500000000     0.345070000000     0.989590000000     0.0573841  
H305     H      0.159210000000     0.105200000000     0.929700000000     0.038543   
H306     H      0.366700000000     0.306640000000     0.028060000000     0.0499004  
H307     H      0.123250000000     0.221360000000     0.967880000000     0.0363285  
H308     H      0.214000000000     0.132860000000     0.967580000000     0.0351021  
H309     H      0.071060000000     0.168300000000     0.977400000000     0.0397184  
H310     H      0.303180000000     0.397150000000     0.982800000000     0.0265137  
H311     H      0.249290000000     0.256720000000     0.048290000000     0.0527122  
H312     H      0.391420000000     0.305790000000     0.980590000000     0.0400944  
H313     H      0.212120000000     0.221110000000     0.909310000000     0.0449368  
H314     H      0.331380000000     0.285740000000     0.945920000000     0.0367938  
H315     H      0.162710000000     0.079340000000     0.976490000000     0.0389059  
H316     H      0.130750000000     0.190910000000     0.011700000000     0.0391758  
H317     H      0.183390000000     0.139320000000     0.011460000000     0.0386794  
H318     H      0.264060000000     0.271690000000     0.921260000000     0.0412058  
H319     H      0.281290000000     0.338620000000     0.946790000000     0.0431677  
H320     H      0.096400000000     0.166010000000     0.930210000000     0.0395418  
H321     H      0.764390000000     0.919740000000     0.761010000000     0.0433844  
H322     H      0.629640000000     0.985000000000     0.715380000000     0.0414205  
H323     H      0.718540000000     0.978270000000     0.625540000000     0.0578438  
H324     H      0.807170000000     0.015110000000     0.870650000000     0.0648381  
H325     H      0.596710000000     0.950070000000     0.662700000000     0.0695114  
H326     H      0.843500000000     0.983930000000     0.749890000000     0.0362484  
H327     H      0.753350000000     0.981220000000     0.838560000000     0.040665   
H328     H      0.895210000000     0.967680000000     0.802730000000     0.040208   
H329     H      0.665980000000     0.990490000000     0.572930000000     0.0246688  
H330     H      0.712160000000     0.915680000000     0.709620000000     0.0580565  
H331     H      0.577760000000     0.000140000000     0.662430000000     0.0453813  
H332     H      0.760990000000     0.048510000000     0.754240000000     0.0525262  
H333     H      0.640460000000     0.027740000000     0.684410000000     0.0383644  
H334     H      0.805840000000     0.965480000000     0.890630000000     0.0465268  
H335     H      0.834180000000     0.938850000000     0.777870000000     0.0373068  
H336     H      0.783030000000     0.937370000000     0.828560000000     0.0373743  
H337     H      0.709110000000     0.044390000000     0.702380000000     0.0435866  
H338     H      0.690170000000     0.023350000000     0.632590000000     0.0449656  
H339     H      0.874280000000     0.016910000000     0.805090000000     0.0470552  
H340     H      0.204290000000     0.921680000000     0.769800000000     0.0421645  
H341     H      0.253600000000     0.966250000000     0.629640000000     0.0375247  
H342     H      0.343990000000     0.968570000000     0.718390000000     0.0585553  
H343     H      0.101890000000     0.028530000000     0.805140000000     0.0404904  
H344     H      0.308420000000     0.928240000000     0.602330000000     0.05092    
H345     H      0.219110000000     0.992290000000     0.842020000000     0.0349657  
H346     H      0.130080000000     0.988900000000     0.752050000000     0.0346609  
H347     H      0.166440000000     0.984430000000     0.894740000000     0.03878    
H348     H      0.396070000000     0.978380000000     0.665050000000     0.0263613  
H349     H      0.255710000000     0.909130000000     0.718940000000     0.0527665  
H350     H      0.305100000000     0.974910000000     0.576200000000     0.0397243  
H351     H      0.218220000000     0.048740000000     0.752620000000     0.0454677  
H352     H      0.284020000000     0.010390000000     0.635610000000     0.0404402  
H353     H      0.076950000000     0.981050000000     0.804300000000     0.0392958  
H354     H      0.188670000000     0.948140000000     0.836220000000     0.0373145  
H355     H      0.137120000000     0.946190000000     0.784180000000     0.0370549  
H356     H      0.269670000000     0.036220000000     0.701850000000     0.0429837  
H357     H      0.336390000000     0.011520000000     0.687040000000     0.0461244  
H358     H      0.164150000000     0.030880000000     0.868060000000     0.0398305  
H359     H      0.201540000000     0.932120000000     0.201350000000     0.0453774  
H360     H      0.338960000000     0.983740000000     0.252480000000     0.0364291  
H361     H      0.249520000000     0.978090000000     0.341970000000     0.0585082  
H362     H      0.160950000000     0.038870000000     0.101340000000     0.0356244  
H363     H      0.368640000000     0.944400000000     0.304620000000     0.0480281  
H364     H      0.125430000000     0.998620000000     0.217480000000     0.0416243  
H365     H      0.216040000000     0.001690000000     0.129070000000     0.0371434  
H366     H      0.073410000000     0.989070000000     0.164500000000     0.0543533  
H367     H      0.302260000000     0.985570000000     0.395030000000     0.025047   
H368     H      0.252880000000     0.921030000000     0.252570000000     0.0544164  
H369     H      0.391590000000     0.992820000000     0.305280000000     0.0380077  
H370     H      0.211650000000     0.059530000000     0.218740000000     0.0448118  
H371     H      0.330730000000     0.025850000000     0.285100000000     0.0377778  
H372     H      0.164510000000     0.991980000000     0.075570000000     0.0382843  
H373     H      0.133710000000     0.955410000000     0.186320000000     0.0503999  
H374     H      0.186180000000     0.957190000000     0.135130000000     0.0410872  
H375     H      0.262870000000     0.048400000000     0.270160000000     0.0411444  
H376     H      0.279950000000     0.022110000000     0.336950000000     0.0445682  
H377     H      0.097780000000     0.036840000000     0.163080000000     0.0377159  
H378     H      0.713300000000     0.061350000000     0.252780000000     0.0452455  
H379     H      0.750350000000     0.987500000000     0.125070000000     0.0406796  
H380     H      0.838810000000     0.983570000000     0.215550000000     0.0591494  
H381     H      0.596510000000     0.036870000000     0.305060000000     0.0360746  
H382     H      0.803360000000     0.949200000000     0.095970000000     0.0693048  
H383     H      0.714980000000     0.000310000000     0.338350000000     0.0383328  
H384     H      0.624670000000     0.000660000000     0.249630000000     0.0380051  
H385     H      0.663190000000     0.988930000000     0.391290000000     0.0388411  
H386     H      0.892390000000     0.993070000000     0.163310000000     0.0277965  
H387     H      0.765100000000     0.051900000000     0.201570000000     0.041991   
H388     H      0.804010000000     0.997660000000     0.073190000000     0.0447282  
H389     H      0.699390000000     0.933480000000     0.262250000000     0.0432952  
H390     H      0.782170000000     0.030120000000     0.133820000000     0.0380302  
H391     H      0.572440000000     0.989020000000     0.302320000000     0.0378577  
H392     H      0.684960000000     0.956200000000     0.330590000000     0.0400739  
H393     H      0.632750000000     0.956380000000     0.279270000000     0.0396868  
H394     H      0.751010000000     0.924060000000     0.210940000000     0.0576502  
H395     H      0.833070000000     0.027470000000     0.185170000000     0.0447735  
H396     H      0.660090000000     0.036780000000     0.367310000000     0.0360917  
H397     H      0.054910000000     0.248320000000     0.708400000000     0.0450184  
H398     H      0.981170000000     0.119680000000     0.745340000000     0.0370544  
H399     H      0.973630000000     0.212300000000     0.831450000000     0.0579378  
H400     H      0.031460000000     0.303230000000     0.592670000000     0.0401538  
H401     H      0.942540000000     0.091130000000     0.798700000000     0.0504305  
H402     H      0.995210000000     0.333980000000     0.711630000000     0.0362258  
H403     H      0.994330000000     0.247520000000     0.619130000000     0.0349637  
H404     H      0.984770000000     0.388540000000     0.661340000000     0.0414138  
H405     H      0.982080000000     0.161950000000     0.886360000000     0.0256588  
H406     H      0.044590000000     0.196540000000     0.759420000000     0.0413712  
H407     H      0.991420000000     0.069210000000     0.800210000000     0.0384847  
H408     H      0.927270000000     0.258770000000     0.693280000000     0.0445206  
H409     H      0.023130000000     0.129940000000     0.777550000000     0.0380354  
H410     H      0.983690000000     0.301710000000     0.568390000000     0.0401023  
H411     H      0.951030000000     0.327690000000     0.681400000000     0.0403665  
H412     H      0.950510000000     0.277710000000     0.627880000000     0.039595   
H413     H      0.917000000000     0.206730000000     0.743980000000     0.0555857  
H414     H      0.018300000000     0.182640000000     0.827580000000     0.0447902  
H415     H      0.032210000000     0.363780000000     0.657590000000     0.0411425  
H416     H      0.929390000000     0.760940000000     0.772030000000     0.0420715  
H417     H      0.981630000000     0.713600000000     0.634240000000     0.0374635  
H418     H      0.978600000000     0.621540000000     0.721200000000     0.0585127  
H419     H      0.034810000000     0.863510000000     0.810800000000     0.0360083  
H420     H      0.944010000000     0.660790000000     0.603330000000     0.0498634  
H421     H      0.995640000000     0.747260000000     0.848170000000     0.0361644  
H422     H      0.997870000000     0.834460000000     0.756380000000     0.0354977  
H423     H      0.984960000000     0.801310000000     0.899280000000     0.0377968  
H424     H      0.989180000000     0.570260000000     0.667100000000     0.0266191  
H425     H      0.919350000000     0.710000000000     0.720150000000     0.0528206  
H426     H      0.992360000000     0.662490000000     0.580320000000     0.0391278  
H427     H      0.057090000000     0.746590000000     0.761420000000     0.0462651  
H428     H      0.024750000000     0.682090000000     0.641680000000     0.0418319  
H429     H      0.987620000000     0.888670000000     0.806970000000     0.0378469  
H430     H      0.952140000000     0.777860000000     0.839270000000     0.0388193  
H431     H      0.953490000000     0.828340000000     0.786340000000     0.0388672  
H432     H      0.047040000000     0.695530000000     0.709650000000     0.0446382  
H433     H      0.022670000000     0.628940000000     0.691400000000     0.0486446  
H434     H      0.033020000000     0.802360000000     0.875530000000     0.0365861  
H435     H      0.986230000000     0.671540000000     0.219300000000     0.04108    
H436     H      0.035380000000     0.768000000000     0.138900000000     0.0367328  
H437     H      0.965310000000     0.843230000000     0.214140000000     0.0611249  
H438     H      0.926410000000     0.626250000000     0.333720000000     0.0420304  
H439     H      0.054870000000     0.833400000000     0.119910000000     0.0499344  
H440     H      0.026340000000     0.710430000000     0.338730000000     0.0369626  
H441     H      0.943710000000     0.644500000000     0.267760000000     0.0366289  
H442     H      0.027620000000     0.656190000000     0.388330000000     0.0427283  
H443     H      0.960770000000     0.893280000000     0.160450000000     0.0416441  
H444     H      0.992360000000     0.721900000000     0.169400000000     0.0413617  
H445     H      0.022510000000     0.815280000000     0.081550000000     0.0407132  
H446     H      0.990620000000     0.762080000000     0.311630000000     0.0454404  
H447     H      0.983140000000     0.776960000000     0.127810000000     0.0381322  
H448     H      0.953810000000     0.585050000000     0.313540000000     0.0419056  
H449     H      0.040630000000     0.663950000000     0.316070000000     0.0454733  
H450     H      0.994900000000     0.627720000000     0.273000000000     0.0386567  
H451     H      0.004340000000     0.812370000000     0.261130000000     0.0566698  
H452     H      0.944630000000     0.822370000000     0.169480000000     0.0571654  
H453     H      0.978640000000     0.677930000000     0.383090000000     0.0400482  
H454     H      0.917230000000     0.211330000000     0.194280000000     0.0426102  
H455     H      0.966420000000     0.257510000000     0.333190000000     0.0365611  
H456     H      0.968560000000     0.350060000000     0.246680000000     0.0582006  
H457     H      0.023010000000     0.107640000000     0.157420000000     0.0397148  
H458     H      0.930020000000     0.311980000000     0.363060000000     0.0505044  
H459     H      0.983660000000     0.224120000000     0.119170000000     0.0359355  
H460     H      0.985270000000     0.136980000000     0.210970000000     0.0357777  
H461     H      0.973350000000     0.169720000000     0.068020000000     0.0409993  
H462     H      0.980090000000     0.400640000000     0.301140000000     0.0243211  
H463     H      0.907060000000     0.262320000000     0.246130000000     0.0528257  
H464     H      0.977420000000     0.307740000000     0.387670000000     0.0372058  
H465     H      0.044920000000     0.223650000000     0.207240000000     0.0452588  
H466     H      0.010890000000     0.287360000000     0.326940000000     0.0373302  
H467     H      0.975600000000     0.082750000000     0.160070000000     0.0434526  
H468     H      0.940300000000     0.193260000000     0.127710000000     0.0383959  
H469     H      0.941310000000     0.142990000000     0.180400000000     0.0384372  
H470     H      0.034760000000     0.274530000000     0.259120000000     0.0409728  
H471     H      0.011850000000     0.340950000000     0.277130000000     0.043888   
H472     H      0.021470000000     0.169650000000     0.091590000000     0.0390449  
N1       N      0.489130000000     0.356150000000     0.118280000000    -0.172051   
N2       N      0.492520000000     0.297160000000     0.178680000000    -0.10051    
N3       N      0.461840000000     0.179410000000     0.298230000000    -0.113307   
N4       N      0.468140000000     0.118720000000     0.356850000000    -0.166165   
N5       N      0.492790000000     0.618920000000     0.112260000000    -0.174064   
N6       N      0.500630000000     0.679670000000     0.170260000000    -0.101166   
N7       N      0.476250000000     0.798900000000     0.289380000000    -0.11272    
N8       N      0.482970000000     0.857130000000     0.349910000000    -0.165796   
N9       N      0.493490000000     0.850470000000     0.611520000000    -0.170356   
N10      N      0.499710000000     0.789610000000     0.669740000000    -0.10024    
N11      N      0.475250000000     0.671100000000     0.789930000000    -0.11239    
N12      N      0.482640000000     0.612920000000     0.850770000000    -0.165018   
N13      N      0.485540000000     0.350540000000     0.857050000000    -0.171105   
N14      N      0.492220000000     0.289760000000     0.798990000000    -0.100126   
N15      N      0.470710000000     0.169970000000     0.679720000000    -0.11195    
N16      N      0.478180000000     0.112220000000     0.618710000000    -0.163347   
N17      N      0.849320000000     0.358020000000     0.488380000000    -0.172972   
N18      N      0.788290000000     0.300110000000     0.494840000000    -0.100676   
N19      N      0.667030000000     0.182440000000     0.472130000000    -0.113153   
N20      N      0.609530000000     0.121100000000     0.480200000000    -0.166118   
N21      N      0.859210000000     0.621220000000     0.483940000000    -0.172842   
N22      N      0.802540000000     0.682960000000     0.475050000000    -0.100364   
N23      N      0.682000000000     0.802640000000     0.489160000000    -0.110764   
N24      N      0.620140000000     0.859090000000     0.480180000000    -0.162313   
N25      N      0.347230000000     0.110210000000     0.491960000000    -0.173565   
N26      N      0.285330000000     0.167540000000     0.495430000000    -0.10105    
N27      N      0.167790000000     0.287130000000     0.464560000000    -0.113586   
N28      N      0.110490000000     0.348970000000     0.470520000000    -0.166367   
N29      N      0.120790000000     0.610700000000     0.490860000000    -0.16777    
N30      N      0.179000000000     0.668460000000     0.477100000000    -0.104108   
N31      N      0.299750000000     0.788660000000     0.469570000000    -0.111146   
N32      N      0.357830000000     0.848660000000     0.480640000000    -0.162603   
N33      N      0.614950000000     0.483140000000     0.116900000000    -0.170784   
N34      N      0.673080000000     0.478130000000     0.177280000000    -0.0993034  
N35      N      0.792110000000     0.499420000000     0.296850000000    -0.111319   
N36      N      0.851850000000     0.492290000000     0.355560000000    -0.160794   
N37      N      0.114030000000     0.496380000000     0.352760000000    -0.173671   
N38      N      0.173450000000     0.506030000000     0.293430000000    -0.101113   
N39      N      0.293140000000     0.483690000000     0.174130000000    -0.111865   
N40      N      0.353310000000     0.489080000000     0.115430000000    -0.163253   
N41      N      0.116520000000     0.477540000000     0.613120000000    -0.173268   
N42      N      0.178930000000     0.482130000000     0.669380000000    -0.0996959  
N43      N      0.294670000000     0.486790000000     0.795310000000    -0.110129   
N44      N      0.354910000000     0.484330000000     0.854090000000    -0.163992   
N45      N      0.617500000000     0.478210000000     0.855180000000    -0.172824   
N46      N      0.677380000000     0.468920000000     0.796940000000    -0.100348   
N47      N      0.796890000000     0.474780000000     0.675930000000    -0.110567   
N48      N      0.855690000000     0.486820000000     0.617580000000    -0.159629   
N49      N      0.858450000000     0.850060000000     0.992650000000    -0.172408   
N50      N      0.800080000000     0.789070000000     0.997990000000    -0.100733   
N51      N      0.679730000000     0.671350000000     0.969770000000    -0.112176   
N52      N      0.618630000000     0.613160000000     0.975700000000    -0.164118   
N53      N      0.850420000000     0.112480000000     0.976940000000    -0.171323   
N54      N      0.789740000000     0.170740000000     0.972200000000    -0.0990875  
N55      N      0.671230000000     0.290260000000     0.997980000000    -0.111106   
N56      N      0.613210000000     0.351100000000     0.992250000000    -0.159707   
N57      N      0.356200000000     0.617780000000     0.977080000000    -0.173552   
N58      N      0.297760000000     0.678800000000     0.971610000000    -0.100663   
N59      N      0.180910000000     0.799690000000     0.001360000000    -0.110435   
N60      N      0.120150000000     0.858300000000     0.995570000000    -0.168003   
N61      N      0.351780000000     0.355630000000     0.990880000000    -0.17351    
N62      N      0.291100000000     0.297030000000     0.994280000000    -0.101322   
N63      N      0.171220000000     0.179780000000     0.963420000000    -0.112845   
N64      N      0.112430000000     0.119390000000     0.969800000000    -0.166673   
N65      N      0.616470000000     0.984550000000     0.613520000000    -0.170855   
N66      N      0.675770000000     0.975690000000     0.672630000000    -0.0989547  
N67      N      0.796380000000     0.988410000000     0.792320000000    -0.110942   
N68      N      0.855230000000     0.978740000000     0.851760000000    -0.162212   
N69      N      0.355250000000     0.968470000000     0.616310000000    -0.173398   
N70      N      0.296270000000     0.962840000000     0.676660000000    -0.1006     
N71      N      0.177140000000     0.995100000000     0.794340000000    -0.113541   
N72      N      0.117170000000     0.991030000000     0.853680000000    -0.166088   
N73      N      0.351640000000     0.979850000000     0.354190000000    -0.173785   
N74      N      0.292020000000     0.975780000000     0.294630000000    -0.100329   
N75      N      0.173190000000     0.004730000000     0.175940000000    -0.110801   
N76      N      0.114400000000     0.998500000000     0.115640000000    -0.166512   
N77      N      0.852470000000     0.984940000000     0.113590000000    -0.170433   
N78      N      0.792070000000     0.980100000000     0.172450000000    -0.099441   
N79      N      0.672330000000     0.005210000000     0.291450000000    -0.110415   
N80      N      0.613210000000     0.997360000000     0.351480000000    -0.167904   
N81      N      0.977700000000     0.110800000000     0.847480000000    -0.173156   
N82      N      0.972350000000     0.168050000000     0.785670000000    -0.100142   
N83      N      0.999450000000     0.288120000000     0.667760000000    -0.113372   
N84      N      0.992500000000     0.349790000000     0.610450000000    -0.165513   
N85      N      0.981290000000     0.612070000000     0.618910000000    -0.172893   
N86      N      0.974990000000     0.669980000000     0.680040000000    -0.100342   
N87      N      0.001490000000     0.788240000000     0.799920000000    -0.110737   
N88      N      0.994790000000     0.849500000000     0.857680000000    -0.168531   
N89      N      0.998300000000     0.861390000000     0.119590000000    -0.173579   
N90      N      0.004690000000     0.804020000000     0.181650000000    -0.097855   
N91      N      0.981140000000     0.683110000000     0.302060000000    -0.111519   
N92      N      0.984090000000     0.619990000000     0.358330000000    -0.166754   
N93      N      0.970160000000     0.358870000000     0.349050000000    -0.174027   
N94      N      0.962630000000     0.301440000000     0.287360000000    -0.100608   
N95      N      0.989430000000     0.183120000000     0.167420000000    -0.113525   
N96      N      0.984210000000     0.121800000000     0.109560000000    -0.165398   
O1       O      0.982580000000     0.101740000000     0.044170000000    -0.376808   
O2       O      0.995210000000     0.875650000000     0.053030000000    -0.37265    
O3       O      0.918710000000     0.987710000000     0.096370000000    -0.368128   
O4       O      0.048840000000     0.992510000000     0.097290000000    -0.369161   
O5       O      0.097680000000     0.993060000000     0.049620000000    -0.377017   
O6       O      0.870890000000     0.985110000000     0.047770000000    -0.369678   
O7       O      0.987110000000     0.925370000000     0.099180000000    -0.363202   
O8       O      0.982610000000     0.055230000000     0.094100000000    -0.375735   
O9       O      0.026200000000     0.948210000000     0.025780000000    -0.504236   
O10      O      0.942740000000     0.026500000000     0.022190000000    -0.506949   
O11      O      0.945720000000     0.945030000000     0.025420000000    -0.653079   
O12      O      0.024220000000     0.028850000000     0.022700000000    -0.649602   
O13      O      0.990390000000     0.869370000000     0.922950000000    -0.378345   
O14      O      0.980590000000     0.095840000000     0.914070000000    -0.369078   
O15      O      0.874250000000     0.916380000000     0.986860000000    -0.369915   
O16      O      0.100840000000     0.923760000000     0.989230000000    -0.377157   
O17      O      0.096420000000     0.053520000000     0.978200000000    -0.376538   
O18      O      0.869830000000     0.046880000000     0.980350000000    -0.368147   
O19      O      0.921120000000     0.978880000000     0.870050000000    -0.375417   
O20      O      0.051200000000     0.986050000000     0.871010000000    -0.375675   
O21      O      0.872400000000     0.979010000000     0.917890000000    -0.371214   
O22      O      0.099160000000     0.987980000000     0.919490000000    -0.377041   
O23      O      0.924000000000     0.869600000000     0.989160000000    -0.378216   
O24      O      0.916740000000     0.096530000000     0.979800000000    -0.372881   
O25      O      0.046920000000     0.100490000000     0.975820000000    -0.375588   
O26      O      0.053920000000     0.874170000000     0.990130000000    -0.374367   
O27      O      0.989610000000     0.915900000000     0.873040000000    -0.379819   
O28      O      0.983250000000     0.045720000000     0.867810000000    -0.374764   
O29      O      0.024590000000     0.025260000000     0.942180000000    -0.504768   
O30      O      0.946230000000     0.941810000000     0.944450000000    -0.507644   
O31      O      0.943920000000     0.022760000000     0.941610000000    -0.652856   
O32      O      0.027730000000     0.944360000000     0.944870000000    -0.650866   
O33      O      0.976010000000     0.373980000000     0.415470000000    -0.376256   
O34      O      0.991290000000     0.599670000000     0.422760000000    -0.374796   
O35      O      0.917880000000     0.489700000000     0.372480000000    -0.370103   
O36      O      0.048140000000     0.490840000000     0.370540000000    -0.376741   
O37      O      0.096900000000     0.487550000000     0.418200000000    -0.369305   
O38      O      0.870200000000     0.489080000000     0.421290000000    -0.369913   
O39      O      0.980540000000     0.553620000000     0.373440000000    -0.376249   
O40      O      0.978340000000     0.423810000000     0.368910000000    -0.372892   
O41      O      0.026100000000     0.524650000000     0.444760000000    -0.505917   
O42      O      0.942020000000     0.447230000000     0.443390000000    -0.506404   
O43      O      0.945120000000     0.527970000000     0.446060000000    -0.654845   
O44      O      0.023190000000     0.444090000000     0.441550000000    -0.652069   
O45      O      0.986350000000     0.596330000000     0.552610000000    -0.376472   
O46      O      0.986130000000     0.369630000000     0.545420000000    -0.375601   
O47      O      0.874140000000     0.554430000000     0.486330000000    -0.367536   
O48      O      0.100640000000     0.545280000000     0.487360000000    -0.36034    
O49      O      0.095540000000     0.415370000000     0.477350000000    -0.376688   
O50      O      0.869040000000     0.423570000000     0.486180000000    -0.368802   
O51      O      0.921330000000     0.483660000000     0.598750000000    -0.37156    
O52      O      0.051060000000     0.483680000000     0.596520000000    -0.37814    
O53      O      0.872440000000     0.489290000000     0.551430000000    -0.370442   
O54      O      0.097920000000     0.472310000000     0.548000000000    -0.366059   
O55      O      0.924370000000     0.600760000000     0.486770000000    -0.375937   
O56      O      0.915680000000     0.373700000000     0.483750000000    -0.377056   
O57      O      0.045400000000     0.369020000000     0.476670000000    -0.377162   
O58      O      0.054300000000     0.595540000000     0.486910000000    -0.374724   
O59      O      0.984460000000     0.546640000000     0.599310000000    -0.366697   
O60      O      0.988100000000     0.416340000000     0.595180000000    -0.376686   
O61      O      0.023900000000     0.441600000000     0.522890000000    -0.508882   
O62      O      0.946350000000     0.525600000000     0.526430000000    -0.507301   
O63      O      0.943360000000     0.444430000000     0.524270000000    -0.653102   
O64      O      0.027540000000     0.522670000000     0.525620000000    -0.65448    
O65      O      0.596320000000     0.991710000000     0.417450000000    -0.376054   
O66      O      0.369740000000     0.981400000000     0.420160000000    -0.370143   
O67      O      0.484440000000     0.922730000000     0.369120000000    -0.376719   
O68      O      0.476000000000     0.052690000000     0.372850000000    -0.375929   
O69      O      0.474940000000     0.099810000000     0.422200000000    -0.375211   
O70      O      0.486540000000     0.873270000000     0.416110000000    -0.377747   
O71      O      0.417550000000     0.984460000000     0.371570000000    -0.3769     
O72      O      0.547460000000     0.991650000000     0.369810000000    -0.378527   
O73      O      0.441280000000     0.024620000000     0.445290000000    -0.506265   
O74      O      0.525550000000     0.946840000000     0.441840000000    -0.506447   
O75      O      0.444550000000     0.943840000000     0.443110000000    -0.654477   
O76      O      0.521970000000     0.028140000000     0.444160000000    -0.652568   
O77      O      0.371690000000     0.975490000000     0.550370000000    -0.375383   
O78      O      0.598120000000     0.987230000000     0.547640000000    -0.369428   
O79      O      0.423290000000     0.868660000000     0.481750000000    -0.374561   
O80      O      0.413910000000     0.095250000000     0.488860000000    -0.370012   
O81      O      0.544240000000     0.101040000000     0.484730000000    -0.377179   
O82      O      0.553460000000     0.874180000000     0.480280000000    -0.375966   
O83      O      0.489070000000     0.916850000000     0.595420000000    -0.363354   
O84      O      0.482120000000     0.046800000000     0.599140000000    -0.376041   
O85      O      0.489010000000     0.869700000000     0.546080000000    -0.375005   
O86      O      0.480380000000     0.096410000000     0.552290000000    -0.372025   
O87      O      0.373270000000     0.915130000000     0.484060000000    -0.370323   
O88      O      0.599790000000     0.924410000000     0.479810000000    -0.370624   
O89      O      0.594280000000     0.054550000000     0.482990000000    -0.376683   
O90      O      0.367610000000     0.045050000000     0.487510000000    -0.377574   
O91      O      0.420640000000     0.976220000000     0.597880000000    -0.369656   
O92      O      0.550350000000     0.985470000000     0.596380000000    -0.371948   
O93      O      0.523380000000     0.026050000000     0.525050000000    -0.506681   
O94      O      0.445620000000     0.941710000000     0.523850000000    -0.505789   
O95      O      0.526510000000     0.945020000000     0.522750000000    -0.655967   
O96      O      0.442110000000     0.022600000000     0.526190000000    -0.653199   
O97      O      0.370580000000     0.421320000000     0.987370000000    -0.370407   
O98      O      0.597050000000     0.417480000000     0.988200000000    -0.369045   
O99      O      0.483700000000     0.369980000000     0.922460000000    -0.370663   
O100     O      0.485000000000     0.372830000000     0.052230000000    -0.373257   
O101     O      0.486400000000     0.422030000000     0.099510000000    -0.366738   
O102     O      0.483950000000     0.417080000000     0.873060000000    -0.371982   
O103     O      0.547750000000     0.370230000000     0.989030000000    -0.369293   
O104     O      0.418040000000     0.372260000000     0.987720000000    -0.378895   
O105     O      0.524390000000     0.444700000000     0.026270000000    -0.503518   
O106     O      0.444070000000     0.444020000000     0.944980000000    -0.508813   
O107     O      0.525150000000     0.442560000000     0.945520000000    -0.655505   
O108     O      0.443650000000     0.445640000000     0.026440000000    -0.655995   
O109     O      0.599630000000     0.547730000000     0.981600000000    -0.376623   
O110     O      0.372740000000     0.551480000000     0.981520000000    -0.370153   
O111     O      0.551230000000     0.481810000000     0.872120000000    -0.367977   
O112     O      0.549330000000     0.486090000000     0.098450000000    -0.371606   
O113     O      0.419490000000     0.488480000000     0.098090000000    -0.378157   
O114     O      0.420690000000     0.485680000000     0.871640000000    -0.377343   
O115     O      0.485790000000     0.596710000000     0.917080000000    -0.374397   
O116     O      0.488280000000     0.599710000000     0.046930000000    -0.371373   
O117     O      0.485890000000     0.547330000000     0.869970000000    -0.374696   
O118     O      0.487240000000     0.552650000000     0.096350000000    -0.377962   
O119     O      0.599050000000     0.481000000000     0.920800000000    -0.37702    
O120     O      0.372340000000     0.480990000000     0.919720000000    -0.370372   
O121     O      0.371470000000     0.488930000000     0.049600000000    -0.370846   
O122     O      0.597990000000     0.483410000000     0.050680000000    -0.368996   
O123     O      0.552260000000     0.596890000000     0.979600000000    -0.370346   
O124     O      0.421820000000     0.599000000000     0.981460000000    -0.376596   
O125     O      0.444990000000     0.527040000000     0.024280000000    -0.507398   
O126     O      0.526650000000     0.523680000000     0.943640000000    -0.508564   
O127     O      0.445550000000     0.524630000000     0.943590000000    -0.655338   
O128     O      0.526180000000     0.525550000000     0.024520000000    -0.653344   
Zr1      Zr     0.984140000000     0.988920000000     0.063920000000     1.43218    
Zr2      Zr     0.987970000000     0.904820000000     0.986670000000     1.42167    
Zr3      Zr     0.982770000000     0.065950000000     0.980520000000     1.42669    
Zr4      Zr     0.904610000000     0.982680000000     0.983190000000     1.42708    
Zr5      Zr     0.065830000000     0.987760000000     0.984250000000     1.42319    
Zr6      Zr     0.985930000000     0.982080000000     0.903310000000     1.42367    
Zr7      Zr     0.983320000000     0.487480000000     0.403980000000     1.43201    
Zr8      Zr     0.988020000000     0.565240000000     0.486770000000     1.43224    
Zr9      Zr     0.981760000000     0.404330000000     0.481540000000     1.42488    
Zr10     Zr     0.904040000000     0.487720000000     0.485810000000     1.4351     
Zr11     Zr     0.065220000000     0.481450000000     0.483340000000     1.43401    
Zr12     Zr     0.985720000000     0.482580000000     0.564690000000     1.43278    
Zr13     Zr     0.482860000000     0.986930000000     0.403610000000     1.42539    
Zr14     Zr     0.403300000000     0.981500000000     0.485010000000     1.43065    
Zr15     Zr     0.564360000000     0.988130000000     0.482860000000     1.42586    
Zr16     Zr     0.487060000000     0.904270000000     0.481930000000     1.4303     
Zr17     Zr     0.480470000000     0.065440000000     0.486300000000     1.42719    
Zr18     Zr     0.485010000000     0.982780000000     0.564380000000     1.43327    
Zr19     Zr     0.483520000000     0.404280000000     0.986650000000     1.43424    
Zr20     Zr     0.565650000000     0.483310000000     0.985330000000     1.43204    
Zr21     Zr     0.404560000000     0.485800000000     0.984780000000     1.43066    
Zr22     Zr     0.485670000000     0.483010000000     0.904370000000     1.43224    
Zr23     Zr     0.484650000000     0.486710000000     0.065370000000     1.4322     
Zr24     Zr     0.486510000000     0.565290000000     0.982870000000     1.42885    


