data_structure

_audit_creation_method RASPA-1.0
_audit_creation_date 2023-5-19
_audit_author_name 'Poobodin Mano'

_cell_length_a    24.6413
_cell_length_b    25.5002
_cell_length_c    25.318
_cell_angle_alpha 90
_cell_angle_beta  90
_cell_angle_gamma 90
_cell_volume      15908.8

_symmetry_cell_setting          triclinic
_symmetry_space_group_name_Hall 'P 1'
_symmetry_space_group_name_H-M  'P 1'
_symmetry_Int_Tables_number     1

_symmetry_equiv_pos_as_xyz 'x,y,z'

loop_
_atom_site_label
_atom_site_type_symbol
_atom_site_fract_x
_atom_site_fract_y
_atom_site_fract_z
_atom_site_charge
C1       C      0.034220000000     0.128130000000     0.198300000000     0.404691   
C2       C      0.964970000000     0.881760000000     0.117870000000     0.404159   
C3       C      0.878920000000     0.048450000000     0.118420000000     0.405138   
C4       C      0.126410000000     0.959510000000     0.200090000000     0.403922   
C5       C      0.074940000000     0.929950000000     0.875610000000     0.403269   
C6       C      0.145550000000     0.175890000000     0.956280000000     0.406289   
C7       C      0.898670000000     0.948190000000     0.956680000000     0.405741   
C8       C      0.144200000000     0.861120000000     0.044150000000     0.406647   
C9       C      0.210660000000     0.109190000000     0.119490000000     0.403826   
C10      C      0.963660000000     0.196900000000     0.036430000000     0.403849   
C11      C      0.982080000000     0.095480000000     0.873210000000     0.404881   
C12      C      0.230640000000     0.010300000000     0.955900000000     0.403377   
C13      C      0.967040000000     0.385500000000     0.439200000000     0.406692   
C14      C      0.042240000000     0.635660000000     0.377450000000     0.407502   
C15      C      0.879770000000     0.550090000000     0.449370000000     0.404958   
C16      C      0.129430000000     0.467490000000     0.366660000000     0.405482   
C17      C      0.137780000000     0.670500000000     0.627010000000     0.405009   
C18      C      0.073080000000     0.416890000000     0.685790000000     0.406144   
C19      C      0.964300000000     0.695250000000     0.540110000000     0.40215    
C20      C      0.210690000000     0.609170000000     0.454210000000     0.406823   
C21      C      0.143530000000     0.358670000000     0.523490000000     0.405153   
C22      C      0.895760000000     0.443340000000     0.604640000000     0.406685   
C23      C      0.980520000000     0.588220000000     0.697650000000     0.406249   
C24      C      0.228880000000     0.501670000000     0.615550000000     0.404728   
C25      C      0.629890000000     0.096250000000     0.372340000000     0.406085   
C26      C      0.376030000000     0.023700000000     0.452120000000     0.402348   
C27      C      0.532200000000     0.937990000000     0.373230000000     0.404737   
C28      C      0.475280000000     0.187460000000     0.450700000000     0.405776   
C29      C      0.474920000000     0.969610000000     0.697620000000     0.405338   
C30      C      0.727330000000     0.048520000000     0.619990000000     0.404064   
C31      C      0.453710000000     0.872220000000     0.541210000000     0.40662    
C32      C      0.397620000000     0.124880000000     0.611280000000     0.405476   
C33      C      0.649300000000     0.199660000000     0.530600000000     0.404049   
C34      C      0.707080000000     0.945670000000     0.461940000000     0.402561   
C35      C      0.628640000000     0.883280000000     0.620180000000     0.406546   
C36      C      0.574580000000     0.133580000000     0.697000000000     0.405048   
C37      C      0.454200000000     0.373650000000     0.031510000000     0.405683   
C38      C      0.405760000000     0.623270000000     0.947920000000     0.406799   
C39      C      0.379150000000     0.524030000000     0.113550000000     0.405374   
C40      C      0.480900000000     0.471020000000     0.869020000000     0.406156   
C41      C      0.653890000000     0.699470000000     0.037910000000     0.404406   
C42      C      0.708560000000     0.445710000000     0.109300000000     0.406043   
C43      C      0.479590000000     0.689150000000     0.115230000000     0.405326   
C44      C      0.579050000000     0.631440000000     0.870250000000     0.406403   
C45      C      0.633880000000     0.382450000000     0.950870000000     0.40703    
C46      C      0.529810000000     0.438870000000     0.194590000000     0.404526   
C47      C      0.631090000000     0.600180000000     0.195780000000     0.405288   
C48      C      0.733170000000     0.543020000000     0.952270000000     0.406708   
C49      C      0.516900000000     0.342720000000     0.404120000000    -0.0421158  
C50      C      0.450550000000     0.282310000000     0.449720000000    -0.0209261  
C51      C      0.489140000000     0.397820000000     0.330610000000     0.0146261  
C52      C      0.463770000000     0.323340000000     0.408900000000     0.0159183  
C53      C      0.502660000000     0.437480000000     0.288550000000    -0.0195093  
C54      C      0.423620000000     0.340950000000     0.373760000000    -0.0436413  
C55      C      0.436270000000     0.377760000000     0.334770000000    -0.0417727  
C56      C      0.529510000000     0.379670000000     0.365210000000    -0.0434982  
C57      C      0.536450000000     0.876670000000     0.203340000000    -0.0434393  
C58      C      0.509580000000     0.936920000000     0.278110000000    -0.0201407  
C59      C      0.469190000000     0.825270000000     0.155840000000     0.0160935  
C60      C      0.495740000000     0.897180000000     0.236190000000     0.0148672  
C61      C      0.455600000000     0.784160000000     0.115250000000    -0.0201658  
C62      C      0.441780000000     0.880990000000     0.228990000000    -0.0422934  
C63      C      0.428620000000     0.845210000000     0.189200000000    -0.0437369  
C64      C      0.523290000000     0.840750000000     0.163620000000    -0.0411025  
C65      C      0.684400000000     0.728360000000     0.692700000000    -0.0447823  
C66      C      0.658230000000     0.789820000000     0.618940000000    -0.0211057  
C67      C      0.617930000000     0.671180000000     0.733870000000     0.0138777  
C68      C      0.644660000000     0.747240000000     0.657830000000     0.0177722  
C69      C      0.603380000000     0.631750000000     0.775640000000    -0.0189992  
C70      C      0.591350000000     0.728160000000     0.661530000000    -0.0421889  
C71      C      0.578050000000     0.690420000000     0.699360000000    -0.0424598  
C72      C      0.671070000000     0.690710000000     0.730590000000    -0.0414396  
C73      C      0.589940000000     0.230990000000     0.906460000000    -0.0424485  
C74      C      0.659850000000     0.287870000000     0.951340000000    -0.0211575  
C75      C      0.614090000000     0.174050000000     0.833220000000     0.014447   
C76      C      0.644200000000     0.247160000000     0.911100000000     0.016705   
C77      C      0.598210000000     0.134730000000     0.791740000000    -0.0195335  
C78      C      0.683130000000     0.227130000000     0.875990000000    -0.0441888  
C79      C      0.668140000000     0.190970000000     0.837210000000    -0.0417288  
C80      C      0.574970000000     0.194710000000     0.867740000000    -0.0433001  
C81      C      0.695390000000     0.333600000000     0.613800000000    -0.0411704  
C82      C      0.647610000000     0.297040000000     0.534100000000    -0.0212041  
C83      C      0.756050000000     0.408400000000     0.607240000000     0.0168473  
C84      C      0.685610000000     0.335830000000     0.559250000000     0.0168792  
C85      C      0.798360000000     0.443340000000     0.631590000000    -0.0201718  
C86      C      0.711310000000     0.374580000000     0.528790000000    -0.0445556  
C87      C      0.746440000000     0.410500000000     0.552620000000    -0.0406652  
C88      C      0.730550000000     0.369480000000     0.637600000000    -0.0440131  
C89      C      0.860270000000     0.902420000000     0.515680000000    -0.0422093  
C90      C      0.805970000000     0.940830000000     0.440300000000    -0.021747   
C91      C      0.922600000000     0.829600000000     0.502280000000     0.0142511  
C92      C      0.846680000000     0.902030000000     0.461790000000     0.0159618  
C93      C      0.964000000000     0.791410000000     0.523540000000    -0.0201568  
C94      C      0.870490000000     0.864380000000     0.428540000000    -0.0443356  
C95      C      0.908040000000     0.828380000000     0.448650000000    -0.0416194  
C96      C      0.897840000000     0.866420000000     0.535790000000    -0.043754   
C97      C      0.230520000000     0.199970000000     0.642600000000    -0.0449914  
C98      C      0.300740000000     0.127620000000     0.640560000000    -0.0212547  
C99      C      0.182180000000     0.226040000000     0.563140000000     0.0152642  
C100     C      0.258430000000     0.161150000000     0.614070000000     0.0179453  
C101     C      0.142430000000     0.261820000000     0.535900000000    -0.0197514  
C102     C      0.248270000000     0.155360000000     0.559810000000    -0.0416043  
C103     C      0.210540000000     0.187670000000     0.534480000000    -0.0434909  
C104     C      0.192740000000     0.232220000000     0.617280000000    -0.0402415  
C105     C      0.335790000000     0.800240000000     0.471510000000    -0.040016   
C106     C      0.370690000000     0.820580000000     0.562670000000    -0.0212838  
C107     C      0.283960000000     0.721160000000     0.453190000000     0.0177082  
C108     C      0.339050000000     0.786590000000     0.525120000000     0.0156478  
C109     C      0.254040000000     0.687470000000     0.413670000000    -0.0193009  
C110     C      0.312810000000     0.741100000000     0.542960000000    -0.04764    
C111     C      0.285010000000     0.708930000000     0.507450000000    -0.0357739  
C112     C      0.308510000000     0.767810000000     0.435900000000    -0.0471232  
C113     C      0.665100000000     0.558710000000     0.356650000000    -0.0423946  
C114     C      0.623190000000     0.621810000000     0.291530000000    -0.0208987  
C115     C      0.737280000000     0.586160000000     0.415950000000     0.0138827  
C116     C      0.660670000000     0.610040000000     0.337030000000     0.0157127  
C117     C      0.781900000000     0.572400000000     0.454190000000    -0.0190282  
C118     C      0.694450000000     0.649440000000     0.357540000000    -0.0439975  
C119     C      0.732640000000     0.637530000000     0.396550000000    -0.0417677  
C120     C      0.703200000000     0.546840000000     0.395790000000    -0.0428978  
C121     C      0.230820000000     0.434200000000     0.164810000000    -0.041832   
C122     C      0.281640000000     0.500370000000     0.109450000000    -0.0200293  
C123     C      0.159600000000     0.461220000000     0.225420000000     0.0165646  
C124     C      0.237800000000     0.486370000000     0.148430000000     0.0149668  
C125     C      0.121680000000     0.448690000000     0.270300000000    -0.020284   
C126     C      0.205220000000     0.525810000000     0.170580000000    -0.0427665  
C127     C      0.166600000000     0.513360000000     0.209000000000    -0.0415118  
C128     C      0.192040000000     0.421720000000     0.203090000000    -0.0439349  
C129     C      0.420140000000     0.411460000000     0.710210000000    -0.0436653  
C130     C      0.489430000000     0.447810000000     0.773810000000    -0.0202426  
C131     C      0.372370000000     0.468160000000     0.648690000000     0.014602   
C132     C      0.451430000000     0.454090000000     0.727650000000     0.0158261  
C133     C      0.326060000000     0.477000000000     0.610940000000    -0.0194684  
C134     C      0.443500000000     0.503640000000     0.704750000000    -0.0417088  
C135     C      0.404200000000     0.510630000000     0.665580000000    -0.0427541  
C136     C      0.380710000000     0.418490000000     0.671180000000    -0.0420556  
C137     C      0.908220000000     0.534250000000     0.896450000000    -0.0430266  
C138     C      0.832010000000     0.561140000000     0.957200000000    -0.019686   
C139     C      0.952770000000     0.597510000000     0.839250000000     0.0160643  
C140     C      0.875980000000     0.574230000000     0.918090000000     0.0147618  
C141     C      0.989760000000     0.608990000000     0.793400000000    -0.0203149  
C142     C      0.882700000000     0.625980000000     0.900380000000    -0.0417234  
C143     C      0.920790000000     0.637530000000     0.861190000000    -0.0436325  
C144     C      0.946160000000     0.545780000000     0.857110000000    -0.0420134  
C145     C      0.718780000000     0.873490000000     0.037540000000    -0.0435957  
C146     C      0.653660000000     0.796870000000     0.032340000000    -0.0205685  
C147     C      0.760690000000     0.909470000000     0.958480000000     0.0176174  
C148     C      0.692370000000     0.835140000000     0.007100000000     0.0146164  
C149     C      0.800280000000     0.946810000000     0.933130000000    -0.0211875  
C150     C      0.700980000000     0.833790000000     0.952310000000    -0.0399455  
C151     C      0.735040000000     0.870520000000     0.928210000000    -0.0447776  
C152     C      0.752870000000     0.910240000000     0.013420000000    -0.0427411  
C153     C      0.899370000000     0.368910000000     0.040650000000    -0.0452159  
C154     C      0.964220000000     0.292960000000     0.052920000000    -0.0214158  
C155     C      0.848160000000     0.404450000000     0.114550000000     0.0166071  
C156     C      0.922980000000     0.331260000000     0.073990000000     0.0167849  
C157     C      0.806140000000     0.441960000000     0.135540000000    -0.0203121  
C158     C      0.908230000000     0.329930000000     0.127540000000    -0.0419311  
C159     C      0.870970000000     0.366140000000     0.147630000000    -0.0436574  
C160     C      0.862060000000     0.405110000000     0.060760000000    -0.0405269  
C161     C      0.303300000000     0.748790000000     0.043880000000    -0.046448   
C162     C      0.223610000000     0.805470000000     0.068480000000    -0.0203703  
C163     C      0.327730000000     0.731930000000     0.952390000000     0.019344   
C164     C      0.260120000000     0.780810000000     0.027550000000     0.0144296  
C165     C      0.362600000000     0.704190000000     0.912210000000    -0.020902   
C166     C      0.252850000000     0.790410000000     0.973270000000    -0.0370222  
C167     C      0.286100000000     0.765870000000     0.936050000000    -0.0484835  
C168     C      0.337040000000     0.724890000000     0.006710000000    -0.0397892  
C169     C      0.300760000000     0.271340000000     0.136960000000    -0.0462565  
C170     C      0.256000000000     0.186170000000     0.160810000000    -0.0190187  
C171     C      0.337930000000     0.288430000000     0.049830000000     0.0168331  
C172     C      0.283990000000     0.221140000000     0.120950000000     0.019342   
C173     C      0.369440000000     0.323620000000     0.013300000000    -0.0216666  
C174     C      0.293300000000     0.205490000000     0.068310000000    -0.0355833  
C175     C      0.320330000000     0.238760000000     0.033230000000    -0.0467597  
C176     C      0.327540000000     0.304640000000     0.101790000000    -0.0404589  
C177     C      0.942430000000     0.051800000000     0.713960000000    -0.0418504  
C178     C      0.989250000000     0.114230000000     0.776690000000    -0.0202749  
C179     C      0.870420000000     0.081420000000     0.655440000000     0.0143434  
C180     C      0.949890000000     0.103240000000     0.732420000000     0.0157136  
C181     C      0.825650000000     0.069260000000     0.616730000000    -0.019443   
C182     C      0.917470000000     0.143710000000     0.711920000000    -0.0438497  
C183     C      0.877870000000     0.132840000000     0.673910000000    -0.0420051  
C184     C      0.902960000000     0.040970000000     0.675780000000    -0.0431305  
C185     C      0.376050000000     0.920170000000     0.897770000000    -0.0428201  
C186     C      0.327110000000     0.982450000000     0.959010000000    -0.017871   
C187     C      0.447050000000     0.951010000000     0.838780000000     0.0167124  
C188     C      0.371090000000     0.970630000000     0.919430000000     0.0158922  
C189     C      0.483300000000     0.942130000000     0.791740000000    -0.0206969  
C190     C      0.404840000000     0.011030000000     0.900970000000    -0.0446956  
C191     C      0.442380000000     0.001340000000     0.860770000000    -0.04361    
C192     C      0.413720000000     0.910450000000     0.857660000000    -0.0439737  
C193     C      0.201290000000     0.021950000000     0.392320000000    -0.0460936  
C194     C      0.278080000000     0.000890000000     0.455050000000    -0.0243191  
C195     C      0.157410000000     0.954000000000     0.340140000000     0.0161875  
C196     C      0.235430000000     0.984410000000     0.415630000000     0.0183615  
C197     C      0.119210000000     0.938560000000     0.296260000000    -0.0208035  
C198     C      0.230250000000     0.931530000000     0.400940000000    -0.0438341  
C199     C      0.191620000000     0.916460000000     0.363410000000    -0.0434651  
C200     C      0.162780000000     0.006900000000     0.354670000000    -0.0428353  
C201     C      0.693930000000     0.146430000000     0.211500000000    -0.0439395  
C202     C      0.622490000000     0.117310000000     0.276550000000    -0.0205757  
C203     C      0.736550000000     0.084600000000     0.151450000000     0.0142852  
C204     C      0.659920000000     0.106630000000     0.230800000000     0.0161385  
C205     C      0.781340000000     0.071620000000     0.113220000000    -0.0191397  
C206     C      0.664060000000     0.055860000000     0.209720000000    -0.0420495  
C207     C      0.702170000000     0.044900000000     0.170350000000    -0.0431081  
C208     C      0.732140000000     0.135430000000     0.172270000000    -0.0416408  
C209     C      0.157330000000     0.302930000000     0.766430000000    -0.0417238  
C210     C      0.067280000000     0.328910000000     0.727070000000    -0.0204971  
C211     C      0.163230000000     0.244690000000     0.842270000000     0.0175255  
C212     C      0.100490000000     0.299260000000     0.767110000000     0.0147598  
C213     C      0.197430000000     0.214620000000     0.881380000000    -0.0200265  
C214     C      0.075290000000     0.266720000000     0.804490000000    -0.0463782  
C215     C      0.106400000000     0.239270000000     0.841430000000    -0.0375336  
C216     C      0.188400000000     0.275980000000     0.803730000000    -0.0464852  
C217     C      0.173950000000     0.861500000000     0.745310000000    -0.0419957  
C218     C      0.104260000000     0.924270000000     0.782120000000    -0.0201344  
C219     C      0.153490000000     0.804690000000     0.670780000000     0.0169245  
C220     C      0.120960000000     0.881720000000     0.744050000000     0.0144738  
C221     C      0.170570000000     0.762990000000     0.632020000000    -0.02046    
C222     C      0.083990000000     0.862300000000     0.706640000000    -0.0430442  
C223     C      0.100080000000     0.823910000000     0.670410000000    -0.0415125  
C224     C      0.190060000000     0.823190000000     0.709040000000    -0.0443794  
C225     C      0.041840000000     0.790210000000     0.263160000000    -0.0438916  
C226     C      0.055470000000     0.721870000000     0.333920000000    -0.0198771  
C227     C      0.951770000000     0.811750000000     0.230410000000     0.0207687  
C228     C      0.019370000000     0.753700000000     0.298330000000     0.0133068  
C229     C      0.915390000000     0.842160000000     0.193640000000    -0.0208852  
C230     C      0.962710000000     0.748250000000     0.301110000000    -0.0393312  
C231     C      0.929210000000     0.776820000000     0.267230000000    -0.0482967  
C232     C      0.008320000000     0.819380000000     0.229840000000    -0.0398023  
C233     C      0.021430000000     0.195100000000     0.368760000000    -0.0442255  
C234     C      0.006980000000     0.132790000000     0.292380000000    -0.0204345  
C235     C      0.949020000000     0.252190000000     0.399460000000     0.016735   
C236     C      0.987200000000     0.174880000000     0.329370000000     0.0152727  
C237     C      0.929270000000     0.294750000000     0.435850000000    -0.0205764  
C238     C      0.934100000000     0.194260000000     0.324670000000    -0.0418449  
C239     C      0.915200000000     0.232750000000     0.359350000000    -0.0440642  
C240     C      0.002520000000     0.233650000000     0.403440000000    -0.0420822  
H1       H      0.937980000000     0.970490000000     0.060170000000     0.210107   
H2       H      0.113200000000     0.060080000000     0.150810000000     0.20958    
H3       H      0.033290000000     0.137520000000     0.967210000000     0.205817   
H4       H      0.135480000000     0.948920000000     0.969820000000     0.208692   
H5       H      0.976520000000     0.611580000000     0.468020000000     0.208944   
H6       H      0.076520000000     0.422930000000     0.456430000000     0.208988   
H7       H      0.993200000000     0.490000000000     0.642660000000     0.208139   
H8       H      0.172300000000     0.583610000000     0.561680000000     0.206496   
H9       H      0.468330000000     0.958640000000     0.467440000000     0.208054   
H10      H      0.580010000000     0.141180000000     0.465610000000     0.208933   
H11      H      0.665400000000     0.971060000000     0.561360000000     0.209784   
H12      H      0.493120000000     0.069910000000     0.648370000000     0.208379   
H13      H      0.441580000000     0.601110000000     0.055310000000     0.206895   
H14      H      0.527950000000     0.428370000000     0.963170000000     0.209199   
H15      H      0.612540000000     0.501680000000     0.146000000000     0.207712   
H16      H      0.640940000000     0.611240000000     0.964730000000     0.207911   
H17      H      0.534480000000     0.372520000000     0.241820000000     0.101141   
H18      H      0.478220000000     0.286100000000     0.484230000000     0.0454207  
H19      H      0.408220000000     0.287880000000     0.463800000000     0.0386283  
H20      H      0.570720000000     0.394130000000     0.362090000000     0.037399   
H21      H      0.548640000000     0.329020000000     0.430320000000     0.0379387  
H22      H      0.466320000000     0.461700000000     0.279210000000     0.0450288  
H23      H      0.382600000000     0.325870000000     0.376300000000     0.0386046  
H24      H      0.404770000000     0.390700000000     0.307920000000     0.0404057  
H25      H      0.533880000000     0.465350000000     0.303390000000     0.037634   
H26      H      0.440680000000     0.225510000000     0.386900000000     0.100618   
H27      H      0.444120000000     0.727870000000     0.178170000000     0.100017   
H28      H      0.542760000000     0.962950000000     0.263930000000     0.0399929  
H29      H      0.473820000000     0.962290000000     0.286460000000     0.0442666  
H30      H      0.555340000000     0.824870000000     0.139070000000     0.0405211  
H31      H      0.578350000000     0.888450000000     0.208510000000     0.0385738  
H32      H      0.413680000000     0.790510000000     0.100310000000     0.0351491  
H33      H      0.409850000000     0.896070000000     0.254180000000     0.0390981  
H34      H      0.386830000000     0.832810000000     0.184600000000     0.0371442  
H35      H      0.483290000000     0.787700000000     0.080730000000     0.0455274  
H36      H      0.539900000000     0.871970000000     0.325840000000     0.100988   
H37      H      0.572820000000     0.697210000000     0.822460000000     0.100714   
H38      H      0.701380000000     0.786260000000     0.606640000000     0.036553   
H39      H      0.632370000000     0.785990000000     0.583140000000     0.047251   
H40      H      0.702140000000     0.676950000000     0.757510000000     0.0391955  
H41      H      0.725530000000     0.743270000000     0.691010000000     0.0384299  
H42      H      0.570920000000     0.605130000000     0.761000000000     0.0394917  
H43      H      0.559950000000     0.742940000000     0.635530000000     0.042633   
H44      H      0.536630000000     0.676420000000     0.701940000000     0.0386294  
H45      H      0.638940000000     0.606240000000     0.784370000000     0.0432414  
H46      H      0.664810000000     0.845340000000     0.683250000000     0.1003     
H47      H      0.569360000000     0.200210000000     0.743870000000     0.100241   
H48      H      0.633280000000     0.284720000000     0.986710000000     0.0464595  
H49      H      0.702530000000     0.281420000000     0.963990000000     0.0382815  
H50      H      0.532930000000     0.182660000000     0.864730000000     0.0375832  
H51      H      0.559160000000     0.246730000000     0.932580000000     0.040226   
H52      H      0.632830000000     0.107890000000     0.783530000000     0.0451096  
H53      H      0.725010000000     0.239850000000     0.878340000000     0.0384694  
H54      H      0.698730000000     0.176020000000     0.810420000000     0.0405651  
H55      H      0.564780000000     0.109390000000     0.806630000000     0.0368237  
H56      H      0.671720000000     0.344430000000     0.888820000000     0.100525   
H57      H      0.855000000000     0.378860000000     0.634300000000     0.100105   
H58      H      0.611160000000     0.292600000000     0.559610000000     0.0466048  
H59      H      0.633760000000     0.311740000000     0.495010000000     0.0335384  
H60      H      0.738500000000     0.366380000000     0.679570000000     0.0383149  
H61      H      0.676140000000     0.303770000000     0.637840000000     0.0436496  
H62      H      0.796530000000     0.483000000000     0.613400000000     0.0459509  
H63      H      0.704540000000     0.376760000000     0.486580000000     0.0371555  
H64      H      0.766810000000     0.439440000000     0.528340000000     0.0425006  
H65      H      0.790130000000     0.448110000000     0.674490000000     0.0356086  
H66      H      0.714740000000     0.247040000000     0.511120000000     0.0997966  
H67      H      0.898230000000     0.743670000000     0.554380000000     0.0998987  
H68      H      0.809180000000     0.978580000000     0.462080000000     0.045838   
H69      H      0.814600000000     0.948500000000     0.397900000000     0.0381268  
H70      H      0.907920000000     0.867560000000     0.577420000000     0.0375513  
H71      H      0.841820000000     0.930650000000     0.542160000000     0.0392538  
H72      H      0.995640000000     0.784060000000     0.493060000000     0.0440207  
H73      H      0.860030000000     0.862880000000     0.387000000000     0.0380598  
H74      H      0.926110000000     0.799830000000     0.422270000000     0.039493   
H75      H      0.985380000000     0.808880000000     0.557980000000     0.036972   
H76      H      0.746170000000     0.879130000000     0.434650000000     0.100171   
H77      H      0.208620000000     0.309830000000     0.506930000000     0.100334   
H78      H      0.293140000000     0.126340000000     0.683830000000     0.0347148  
H79      H      0.298480000000     0.086930000000     0.624920000000     0.0462009  
H80      H      0.171840000000     0.262140000000     0.639870000000     0.041569   
H81      H      0.238310000000     0.205610000000     0.684330000000     0.0380945  
H82      H      0.126820000000     0.242850000000     0.499400000000     0.0336581  
H83      H      0.269970000000     0.126160000000     0.536990000000     0.0436684  
H84      H      0.203600000000     0.182820000000     0.492520000000     0.0370419  
H85      H      0.106750000000     0.268280000000     0.562030000000     0.0450915  
H86      H      0.359080000000     0.190660000000     0.641190000000     0.0996406  
H87      H      0.287120000000     0.609180000000     0.419510000000     0.0994417  
H88      H      0.350100000000     0.859270000000     0.565310000000     0.0459322  
H89      H      0.371310000000     0.803090000000     0.602880000000     0.0361876  
H90      H      0.306790000000     0.779060000000     0.394660000000     0.0364952  
H91      H      0.354890000000     0.835770000000     0.457150000000     0.0407376  
H92      H      0.212260000000     0.703190000000     0.408730000000     0.0461042  
H93      H      0.313930000000     0.730330000000     0.584330000000     0.0370201  
H94      H      0.264940000000     0.674410000000     0.522720000000     0.0430946  
H95      H      0.274970000000     0.690270000000     0.374840000000     0.0333215  
H96      H      0.447050000000     0.791720000000     0.532090000000     0.100177   
H97      H      0.827620000000     0.546350000000     0.385450000000     0.101322   
H98      H      0.587820000000     0.594680000000     0.292060000000     0.0447052  
H99      H      0.607670000000     0.662610000000     0.294880000000     0.0394876  
H100     H      0.706910000000     0.506770000000     0.409550000000     0.0378289  
H101     H      0.639970000000     0.527610000000     0.340780000000     0.0382358  
H102     H      0.791370000000     0.606500000000     0.480030000000     0.0426122  
H103     H      0.692210000000     0.689090000000     0.342350000000     0.0388877  
H104     H      0.759290000000     0.668180000000     0.410870000000     0.0390029  
H105     H      0.768530000000     0.540290000000     0.480930000000     0.0389072  
H106     H      0.694480000000     0.627400000000     0.241660000000     0.100802   
H107     H      0.191760000000     0.437970000000     0.320770000000     0.100698   
H108     H      0.292450000000     0.465840000000     0.084690000000     0.0442469  
H109     H      0.267030000000     0.531790000000     0.082510000000     0.0392147  
H110     H      0.188050000000     0.381420000000     0.216060000000     0.0378128  
H111     H      0.255990000000     0.403290000000     0.148650000000     0.0387365  
H112     H      0.086650000000     0.476220000000     0.270150000000     0.0464782  
H113     H      0.210490000000     0.566350000000     0.158880000000     0.0391859  
H114     H      0.142780000000     0.544520000000     0.226560000000     0.0422439  
H115     H      0.104790000000     0.408600000000     0.265070000000     0.0366867  
H116     H      0.326560000000     0.530990000000     0.176860000000     0.101055   
H117     H      0.280730000000     0.503740000000     0.679760000000     0.101883   
H118     H      0.508020000000     0.408090000000     0.773130000000     0.0377714  
H119     H      0.522710000000     0.477240000000     0.771740000000     0.0454112  
H120     H      0.355850000000     0.385460000000     0.659390000000     0.0397924  
H121     H      0.425100000000     0.373110000000     0.728000000000     0.0383963  
H122     H      0.337490000000     0.506740000000     0.580780000000     0.0396744  
H123     H      0.466660000000     0.537180000000     0.718240000000     0.039929   
H124     H      0.397620000000     0.549440000000     0.649400000000     0.0388061  
H125     H      0.316620000000     0.440420000000     0.588780000000     0.0439593  
H126     H      0.417630000000     0.443430000000     0.823290000000     0.101139   
H127     H      0.918790000000     0.618640000000     0.743790000000     0.100712   
H128     H      0.845430000000     0.528620000000     0.983380000000     0.0388069  
H129     H      0.822880000000     0.595620000000     0.982650000000     0.0439885  
H130     H      0.969670000000     0.514210000000     0.839900000000     0.0400951  
H131     H      0.903060000000     0.493980000000     0.909120000000     0.0383629  
H132     H      0.006750000000     0.649180000000     0.797370000000     0.0392     
H133     H      0.857650000000     0.657230000000     0.916060000000     0.039764   
H134     H      0.924510000000     0.677500000000     0.847150000000     0.0393697  
H135     H      0.024810000000     0.581490000000     0.793630000000     0.0456605  
H136     H      0.786180000000     0.531520000000     0.890040000000     0.100956   
H137     H      0.858970000000     0.884960000000     0.923120000000     0.101264   
H138     H      0.639420000000     0.812340000000     0.070990000000     0.0356726  
H139     H      0.617470000000     0.792340000000     0.006480000000     0.0460153  
H140     H      0.773340000000     0.939170000000     0.037620000000     0.0398284  
H141     H      0.712930000000     0.875070000000     0.079920000000     0.0369583  
H142     H      0.789060000000     0.952890000000     0.891050000000     0.0374445  
H143     H      0.681190000000     0.804350000000     0.928210000000     0.0411738  
H144     H      0.741590000000     0.868410000000     0.885960000000     0.0386374  
H145     H      0.798240000000     0.985680000000     0.952960000000     0.045982   
H146     H      0.719910000000     0.746450000000     0.056740000000     0.0999366  
H147     H      0.746890000000     0.379590000000     0.138590000000     0.100345   
H148     H      0.985340000000     0.309950000000     0.018080000000     0.0368702  
H149     H      0.995400000000     0.285110000000     0.083720000000     0.0470173  
H150     H      0.843960000000     0.433610000000     0.034350000000     0.0418328  
H151     H      0.909820000000     0.370290000000     0.999120000000     0.0388404  
H152     H      0.813290000000     0.448940000000     0.178310000000     0.0361289  
H153     H      0.925620000000     0.300880000000     0.153770000000     0.042213   
H154     H      0.859850000000     0.364200000000     0.188980000000     0.0381435  
H155     H      0.810030000000     0.480520000000     0.115350000000     0.0463527  
H156     H      0.898220000000     0.245870000000     0.021520000000     0.100077   
H157     H      0.329480000000     0.625800000000     0.913120000000     0.100287   
H158     H      0.221140000000     0.779270000000     0.103500000000     0.0350373  
H159     H      0.242710000000     0.842610000000     0.081880000000     0.0465205  
H160     H      0.369940000000     0.700360000000     0.020550000000     0.0443824  
H161     H      0.310780000000     0.742060000000     0.085500000000     0.0367198  
H162     H      0.345450000000     0.709840000000     0.871990000000     0.0337506  
H163     H      0.221180000000     0.816440000000     0.959420000000     0.0421926  
H164     H      0.279040000000     0.773150000000     0.894460000000     0.0373309  
H165     H      0.403860000000     0.721810000000     0.912620000000     0.0465686  
H166     H      0.147110000000     0.780250000000     0.035390000000     0.100072   
H167     H      0.444940000000     0.294080000000     0.045470000000     0.100062   
H168     H      0.278490000000     0.188630000000     0.198810000000     0.0326041  
H169     H      0.214620000000     0.201910000000     0.168290000000     0.044682   
H170     H      0.340780000000     0.342890000000     0.115260000000     0.043294   
H171     H      0.293500000000     0.284610000000     0.177000000000     0.0369448  
H172     H      0.369660000000     0.307400000000     0.972540000000     0.0357667  
H173     H      0.280320000000     0.167560000000     0.053990000000     0.0488732  
H174     H      0.327780000000     0.225550000000     0.993220000000     0.0391123  
H175     H      0.348970000000     0.362440000000     0.011400000000     0.0462299  
H176     H      0.288000000000     0.107800000000     0.152130000000     0.0983265  
H177     H      0.779010000000     0.041150000000     0.684080000000     0.100818   
H178     H      0.022950000000     0.085190000000     0.776280000000     0.0451719  
H179     H      0.007030000000     0.154000000000     0.771680000000     0.0357732  
H180     H      0.897240000000     0.000920000000     0.662630000000     0.0374502  
H181     H      0.966440000000     0.019890000000     0.729850000000     0.0399792  
H182     H      0.816850000000     0.104090000000     0.591670000000     0.0446496  
H183     H      0.922030000000     0.183500000000     0.726230000000     0.0373972  
H184     H      0.852600000000     0.164460000000     0.659360000000     0.0402415  
H185     H      0.838800000000     0.037690000000     0.589240000000     0.0367296  
H186     H      0.919700000000     0.125390000000     0.827790000000     0.100183   
H187     H      0.411300000000     0.941150000000     0.742530000000     0.10039    
H188     H      0.315190000000     0.946360000000     0.980870000000     0.0425837  
H189     H      0.341870000000     0.011470000000     0.988480000000     0.0397521  
H190     H      0.415980000000     0.871610000000     0.840470000000     0.0379588  
H191     H      0.349850000000     0.888650000000     0.910960000000     0.0390879  
H192     H      0.519420000000     0.968220000000     0.793960000000     0.0450535  
H193     H      0.401050000000     0.050370000000     0.916700000000     0.0388255  
H194     H      0.466960000000     0.033380000000     0.846020000000     0.0384085  
H195     H      0.498720000000     0.901160000000     0.792020000000     0.0389837  
H196     H      0.283230000000     0.016390000000     0.892630000000     0.0999938  
H197     H      0.188310000000     0.927550000000     0.244850000000     0.099871   
H198     H      0.262280000000     0.033330000000     0.480060000000     0.0389354  
H199     H      0.288460000000     0.967660000000     0.481710000000     0.0445749  
H200     H      0.137600000000     0.036620000000     0.336360000000     0.0383023  
H201     H      0.205000000000     0.062990000000     0.402780000000     0.03819    
H202     H      0.104480000000     0.897880000000     0.302880000000     0.036098   
H203     H      0.256540000000     0.902000000000     0.418050000000     0.0386616  
H204     H      0.188950000000     0.875620000000     0.351920000000     0.0365215  
H205     H      0.082910000000     0.964500000000     0.296340000000     0.0446942  
H206     H      0.324120000000     0.031010000000     0.388210000000     0.0999861  
H207     H      0.825740000000     0.041890000000     0.181290000000     0.100632   
H208     H      0.606570000000     0.158010000000     0.273920000000     0.0378126  
H209     H      0.587340000000     0.089920000000     0.275670000000     0.0456995  
H210     H      0.759040000000     0.166310000000     0.158930000000     0.040432   
H211     H      0.691860000000     0.185640000000     0.227830000000     0.0386358  
H212     H      0.767840000000     0.040590000000     0.085290000000     0.0364639  
H213     H      0.638720000000     0.024450000000     0.224640000000     0.0392595  
H214     H      0.705730000000     0.005210000000     0.155480000000     0.0370853  
H215     H      0.791530000000     0.106460000000     0.088660000000     0.0444949  
H216     H      0.694080000000     0.121460000000     0.326320000000     0.100556   
H217     H      0.179380000000     0.250510000000     0.956610000000     0.0997902  
H218     H      0.076200000000     0.312400000000     0.687320000000     0.0449321  
H219     H      0.023060000000     0.323900000000     0.734210000000     0.037397   
H220     H      0.232190000000     0.279560000000     0.802430000000     0.0365552  
H221     H      0.177620000000     0.326860000000     0.737090000000     0.0426961  
H222     H      0.202380000000     0.173730000000     0.866970000000     0.046217   
H223     H      0.031560000000     0.262360000000     0.805000000000     0.0370407  
H224     H      0.085840000000     0.214010000000     0.869340000000     0.0441051  
H225     H      0.238480000000     0.232600000000     0.883700000000     0.03242    
H226     H      0.096380000000     0.401320000000     0.762840000000     0.100533   
H227     H      0.172430000000     0.704140000000     0.693430000000     0.0999467  
H228     H      0.139850000000     0.949210000000     0.792220000000     0.0438848  
H229     H      0.073260000000     0.950140000000     0.763630000000     0.0395249  
H230     H      0.231130000000     0.808130000000     0.710650000000     0.0368937  
H231     H      0.202910000000     0.875570000000     0.774210000000     0.0387001  
H232     H      0.149190000000     0.768840000000     0.593780000000     0.0461493  
H233     H      0.042770000000     0.877030000000     0.705360000000     0.0384908  
H234     H      0.070960000000     0.809400000000     0.641860000000     0.0420527  
H235     H      0.214700000000     0.766870000000     0.623750000000     0.0342893  
H236     H      0.067180000000     0.862920000000     0.829850000000     0.101254   
H237     H      0.930700000000     0.807340000000     0.117320000000     0.100057   
H238     H      0.098580000000     0.724530000000     0.321200000000     0.0371028  
H239     H      0.052850000000     0.738940000000     0.374260000000     0.0443463  
H240     H      0.026850000000     0.847420000000     0.203340000000     0.0529849  
H241     H      0.085340000000     0.796170000000     0.261410000000     0.0378329  
H242     H      0.874390000000     0.823950000000     0.192820000000     0.0330327  
H243     H      0.944420000000     0.721460000000     0.329150000000     0.0406206  
H244     H      0.885680000000     0.771430000000     0.269630000000     0.0374252  
H245     H      0.910890000000     0.882790000000     0.208920000000     0.0455751  
H246     H      0.024400000000     0.650110000000     0.298780000000     0.100422   
H247     H      0.928950000000     0.353010000000     0.373990000000     0.0998789  
H248     H      0.039710000000     0.109370000000     0.311340000000     0.0359901  
H249     H      0.973100000000     0.105490000000     0.282910000000     0.0457861  
H250     H      0.029580000000     0.248990000000     0.433430000000     0.0400978  
H251     H      0.062720000000     0.181050000000     0.372640000000     0.0368549  
H252     H      0.884580000000     0.291320000000     0.440750000000     0.0364252  
H253     H      0.907320000000     0.179540000000     0.294140000000     0.0412952  
H254     H      0.874170000000     0.247370000000     0.354920000000     0.0378703  
H255     H      0.947530000000     0.289640000000     0.475680000000     0.046188   
H256     H      0.042520000000     0.194790000000     0.244470000000     0.10003    
N1       N      0.523000000000     0.412020000000     0.240460000000    -0.212719   
N2       N      0.454490000000     0.230100000000     0.425730000000    -0.212305   
N3       N      0.458620000000     0.732070000000     0.139520000000    -0.212945   
N4       N      0.527680000000     0.911270000000     0.326980000000    -0.212536   
N5       N      0.584550000000     0.657780000000     0.823980000000    -0.2133     
N6       N      0.650990000000     0.840990000000     0.644390000000    -0.212406   
N7       N      0.580410000000     0.160580000000     0.742900000000    -0.212915   
N8       N      0.656270000000     0.339930000000     0.927070000000    -0.212395   
N9       N      0.851630000000     0.418730000000     0.624960000000    -0.212666   
N10      N      0.675120000000     0.246540000000     0.526000000000    -0.212255   
N11      N      0.938160000000     0.742250000000     0.540340000000    -0.212089   
N12      N      0.751150000000     0.918750000000     0.444350000000    -0.21147    
N13      N      0.168850000000     0.311360000000     0.521360000000    -0.212608   
N14      N      0.354360000000     0.150960000000     0.631760000000    -0.212149   
N15      N      0.253500000000     0.632140000000     0.429580000000    -0.213218   
N16      N      0.426810000000     0.825830000000     0.543950000000    -0.212965   
N17      N      0.830710000000     0.555620000000     0.425630000000    -0.213114   
N18      N      0.653290000000     0.617300000000     0.241730000000    -0.212422   
N19      N      0.151370000000     0.450720000000     0.320460000000    -0.212271   
N20      N      0.329940000000     0.519660000000     0.137240000000    -0.213092   
N21      N      0.277670000000     0.494940000000     0.639460000000    -0.213008   
N22      N      0.458850000000     0.453450000000     0.823200000000    -0.212652   
N23      N      0.959150000000     0.605810000000     0.743810000000    -0.212301   
N24      N      0.782860000000     0.544350000000     0.929200000000    -0.213338   
N25      N      0.854750000000     0.923940000000     0.935440000000    -0.211822   
N26      N      0.680350000000     0.746160000000     0.041720000000    -0.211995   
N27      N      0.751950000000     0.419190000000     0.128850000000    -0.212124   
N28      N      0.937800000000     0.244020000000     0.036390000000    -0.212078   
N29      N      0.363740000000     0.647750000000     0.923440000000    -0.21253    
N30      N      0.168530000000     0.813460000000     0.047800000000    -0.213341   
N31      N      0.425750000000     0.328040000000     0.031650000000    -0.212799   
N32      N      0.254180000000     0.131190000000     0.143850000000    -0.213561   
N33      N      0.776310000000     0.052290000000     0.644360000000    -0.212623   
N34      N      0.960190000000     0.112910000000     0.827230000000    -0.212819   
N35      N      0.452610000000     0.950770000000     0.742850000000    -0.212156   
N36      N      0.279600000000     0.004510000000     0.932070000000    -0.213929   
N37      N      0.148000000000     0.940530000000     0.245620000000    -0.212439   
N38      N      0.327030000000     0.019550000000     0.427820000000    -0.212391   
N39      N      0.829570000000     0.053250000000     0.141710000000    -0.213209   
N40      N      0.652680000000     0.112210000000     0.326240000000    -0.212526   
N41      N      0.173290000000     0.216470000000     0.934330000000    -0.213169   
N42      N      0.080350000000     0.385100000000     0.728210000000    -0.213293   
N43      N      0.160480000000     0.710800000000     0.654330000000    -0.212373   
N44      N      0.081010000000     0.901740000000     0.830430000000    -0.212393   
N45      N      0.937300000000     0.841170000000     0.139790000000    -0.212999   
N46      N      0.039030000000     0.666500000000     0.333920000000    -0.213879   
N47      N      0.941550000000     0.346160000000     0.412860000000    -0.212235   
N48      N      0.028620000000     0.156000000000     0.243700000000    -0.212808   
O1       O      0.056370000000     0.151620000000     0.158490000000    -0.379704   
O2       O      0.981220000000     0.876180000000     0.069670000000    -0.380696   
O3       O      0.918000000000     0.030260000000     0.147130000000    -0.380883   
O4       O      0.075730000000     0.972850000000     0.199540000000    -0.379428   
O5       O      0.158830000000     0.963390000000     0.160180000000    -0.380408   
O6       O      0.883520000000     0.061900000000     0.069380000000    -0.379996   
O7       O      0.972860000000     0.923180000000     0.146310000000    -0.382532   
O8       O      0.017480000000     0.080080000000     0.197950000000    -0.380964   
O9       O      0.070280000000     0.952560000000     0.086430000000    -0.5076     
O10      O      0.997900000000     0.085710000000     0.085000000000    -0.507031   
O11      O      0.972310000000     0.987450000000     0.053490000000    -0.651277   
O12      O      0.096290000000     0.051170000000     0.117610000000    -0.654623   
O13      O      0.052950000000     0.906510000000     0.915540000000    -0.37993    
O14      O      0.128880000000     0.181690000000     0.004330000000    -0.381501   
O15      O      0.895310000000     0.997570000000     0.968210000000    -0.376216   
O16      O      0.170610000000     0.901650000000     0.060760000000    -0.381777   
O17      O      0.213420000000     0.059700000000     0.108790000000    -0.383074   
O18      O      0.937270000000     0.156930000000     0.018210000000    -0.379628   
O19      O      0.032970000000     0.082860000000     0.874010000000    -0.380186   
O20      O      0.191630000000     0.028890000000     0.927380000000    -0.381308   
O21      O      0.949850000000     0.092550000000     0.913340000000    -0.383717   
O22      O      0.226050000000     0.996540000000     0.004880000000    -0.379689   
O23      O      0.940990000000     0.919410000000     0.964620000000    -0.37937    
O24      O      0.012760000000     0.195080000000     0.054340000000    -0.381556   
O25      O      0.169530000000     0.138860000000     0.108860000000    -0.379354   
O26      O      0.095910000000     0.862570000000     0.024240000000    -0.38143    
O27      O      0.091720000000     0.978010000000     0.875900000000    -0.37823    
O28      O      0.137660000000     0.134430000000     0.927900000000    -0.381598   
O29      O      0.137400000000     0.071010000000     0.020440000000    -0.509648   
O30      O      0.013100000000     0.007170000000     0.956910000000    -0.508012   
O31      O      0.039350000000     0.106040000000     0.987590000000    -0.649479   
O32      O      0.112030000000     0.972370000000     0.989200000000    -0.652119   
O33      O      0.981550000000     0.377470000000     0.487610000000    -0.380517   
O34      O      0.062870000000     0.655760000000     0.419720000000    -0.381801   
O35      O      0.919560000000     0.534150000000     0.420200000000    -0.380931   
O36      O      0.078900000000     0.481310000000     0.367150000000    -0.378745   
O37      O      0.161070000000     0.468230000000     0.407360000000    -0.381004   
O38      O      0.883530000000     0.561040000000     0.499120000000    -0.378473   
O39      O      0.024040000000     0.588250000000     0.373640000000    -0.381596   
O40      O      0.975030000000     0.428670000000     0.413630000000    -0.38152    
O41      O      0.097890000000     0.553140000000     0.455140000000    -0.508171   
O42      O      0.971620000000     0.487560000000     0.511260000000    -0.508136   
O43      O      0.999130000000     0.587000000000     0.486910000000    -0.652157   
O44      O      0.070290000000     0.453330000000     0.478340000000    -0.652684   
O45      O      0.124280000000     0.678230000000     0.578260000000    -0.38259    
O46      O      0.050830000000     0.397070000000     0.644110000000    -0.380161   
O47      O      0.937400000000     0.654690000000     0.556210000000    -0.379748   
O48      O      0.213510000000     0.559270000000     0.462660000000    -0.380643   
O49      O      0.170810000000     0.399230000000     0.508110000000    -0.379815   
O50      O      0.893390000000     0.493430000000     0.596740000000    -0.379036   
O51      O      0.030880000000     0.573930000000     0.697100000000    -0.379272   
O52      O      0.189420000000     0.518680000000     0.644550000000    -0.3803     
O53      O      0.948510000000     0.586920000000     0.657220000000    -0.381767   
O54      O      0.225110000000     0.491020000000     0.565740000000    -0.380492   
O55      O      0.013830000000     0.693890000000     0.523260000000    -0.380058   
O56      O      0.937520000000     0.414420000000     0.594680000000    -0.384705   
O57      O      0.094100000000     0.360130000000     0.540440000000    -0.381749   
O58      O      0.170240000000     0.638580000000     0.467580000000    -0.38045    
O59      O      0.131220000000     0.626760000000     0.652010000000    -0.380735   
O60      O      0.089460000000     0.464890000000     0.689940000000    -0.380891   
O61      O      0.109670000000     0.467260000000     0.577660000000    -0.509551   
O62      O      0.038540000000     0.600480000000     0.586430000000    -0.509531   
O63      O      0.010900000000     0.500950000000     0.610470000000    -0.651042   
O64      O      0.138140000000     0.566930000000     0.553450000000    -0.651268   
O65      O      0.661900000000     0.091360000000     0.412480000000    -0.382387   
O66      O      0.379430000000     0.010270000000     0.501270000000    -0.380767   
O67      O      0.516910000000     0.986440000000     0.373820000000    -0.38002    
O68      O      0.479220000000     0.144900000000     0.423300000000    -0.382645   
O69      O      0.490130000000     0.192130000000     0.499490000000    -0.376996   
O70      O      0.551730000000     0.913150000000     0.413560000000    -0.38049    
O71      O      0.416290000000     0.040460000000     0.424000000000    -0.380706   
O72      O      0.578290000000     0.086990000000     0.373140000000    -0.378639   
O73      O      0.471320000000     0.081450000000     0.517730000000    -0.508796   
O74      O      0.593600000000     0.011220000000     0.456170000000    -0.507278   
O75      O      0.492490000000     0.981040000000     0.487260000000    -0.651335   
O76      O      0.571980000000     0.110410000000     0.486400000000    -0.651484   
O77      O      0.442700000000     0.976090000000     0.657870000000    -0.38056    
O78      O      0.724160000000     0.061950000000     0.570830000000    -0.379547   
O79      O      0.502260000000     0.871360000000     0.521860000000    -0.381329   
O80      O      0.440990000000     0.152020000000     0.602650000000    -0.382555   
O81      O      0.600570000000     0.199650000000     0.549370000000    -0.382561   
O82      O      0.663170000000     0.918920000000     0.469190000000    -0.380151   
O83      O      0.624530000000     0.925690000000     0.647800000000    -0.382105   
O84      O      0.588450000000     0.084730000000     0.696830000000    -0.38287    
O85      O      0.613500000000     0.878690000000     0.571500000000    -0.378556   
O86      O      0.554990000000     0.158420000000     0.656700000000    -0.380087   
O87      O      0.429310000000     0.913860000000     0.557980000000    -0.380179   
O88      O      0.711930000000     0.995400000000     0.471340000000    -0.376035   
O89      O      0.674820000000     0.158230000000     0.514540000000    -0.378984   
O90      O      0.392880000000     0.075220000000     0.601800000000    -0.379566   
O91      O      0.526310000000     0.979950000000     0.697180000000    -0.377568   
O92      O      0.687060000000     0.031410000000     0.647860000000    -0.380376   
O93      O      0.611250000000     0.089710000000     0.584110000000    -0.506658   
O94      O      0.531870000000     0.960460000000     0.584610000000    -0.506196   
O95      O      0.632300000000     0.989740000000     0.553500000000    -0.6515     
O96      O      0.510270000000     0.059920000000     0.615590000000    -0.653327   
O97      O      0.502850000000     0.372430000000     0.050610000000    -0.381543   
O98      O      0.447930000000     0.650890000000     0.960020000000    -0.382167   
O99      O      0.383070000000     0.510950000000     0.064350000000    -0.381339   
O100     O      0.448410000000     0.476380000000     0.908690000000    -0.381458   
O101     O      0.532320000000     0.481170000000     0.870120000000    -0.378881   
O102     O      0.418920000000     0.540970000000     0.142170000000    -0.380584   
O103     O      0.400310000000     0.573850000000     0.957970000000    -0.380711   
O104     O      0.431090000000     0.414990000000     0.012380000000    -0.381065   
O105     O      0.516020000000     0.559370000000     0.952260000000    -0.510178   
O106     O      0.495320000000     0.482360000000     0.080230000000    -0.50929    
O107     O      0.474810000000     0.582120000000     0.048730000000    -0.652213   
O108     O      0.535950000000     0.459500000000     0.983440000000    -0.652307   
O109     O      0.605360000000     0.699600000000     0.018630000000    -0.38131    
O110     O      0.664890000000     0.418880000000     0.101180000000    -0.38177    
O111     O      0.482690000000     0.646760000000     0.142990000000    -0.383391   
O112     O      0.593680000000     0.582800000000     0.871290000000    -0.381654   
O113     O      0.630760000000     0.424780000000     0.923060000000    -0.382621   
O114     O      0.515530000000     0.487630000000     0.193670000000    -0.380657   
O115     O      0.663590000000     0.594640000000     0.156120000000    -0.382745   
O116     O      0.729080000000     0.557970000000     0.000910000000    -0.381246   
O117     O      0.579640000000     0.590070000000     0.194700000000    -0.378326   
O118     O      0.693140000000     0.526810000000     0.923620000000    -0.38222    
O119     O      0.494970000000     0.693250000000     0.066540000000    -0.379595   
O120     O      0.550600000000     0.413860000000     0.154990000000    -0.379915   
O121     O      0.617110000000     0.377990000000     0.999080000000    -0.378395   
O122     O      0.559340000000     0.656820000000     0.910110000000    -0.380892   
O123     O      0.678930000000     0.657980000000     0.054520000000    -0.378842   
O124     O      0.713660000000     0.495360000000     0.099830000000    -0.377063   
O125     O      0.635650000000     0.489280000000     0.016720000000    -0.508356   
O126     O      0.575410000000     0.611070000000     0.081440000000    -0.509002   
O127     O      0.595920000000     0.511620000000     0.112940000000    -0.649867   
O128     O      0.616280000000     0.589230000000     0.984420000000    -0.650869   
Zr1      Zr     0.013600000000     0.009240000000     0.133660000000     1.4267     
Zr2      Zr     0.029180000000     0.931000000000     0.005990000000     1.43047    
Zr3      Zr     0.080730000000     0.127200000000     0.068200000000     1.42836    
Zr4      Zr     0.956730000000     0.063780000000     0.004750000000     1.42458    
Zr5      Zr     0.152680000000     0.994920000000     0.069600000000     1.43312    
Zr6      Zr     0.095820000000     0.048830000000     0.940450000000     1.42516    
Zr7      Zr     0.015330000000     0.513660000000     0.433590000000     1.43031    
Zr8      Zr     0.082010000000     0.626110000000     0.508750000000     1.43161    
Zr9      Zr     0.026840000000     0.428130000000     0.556390000000     1.43288    
Zr10     Zr     0.955890000000     0.560730000000     0.564830000000     1.42655    
Zr11     Zr     0.152960000000     0.493230000000     0.499890000000     1.42977    
Zr12     Zr     0.094010000000     0.540570000000     0.630980000000     1.4275     
Zr13     Zr     0.512970000000     0.056490000000     0.438680000000     1.42864    
Zr14     Zr     0.451710000000     0.006300000000     0.566920000000     1.42554    
Zr15     Zr     0.652460000000     0.065050000000     0.504570000000     1.42433    
Zr16     Zr     0.573200000000     0.936060000000     0.505190000000     1.42975    
Zr17     Zr     0.530590000000     0.134740000000     0.565960000000     1.42863    
Zr18     Zr     0.590760000000     0.014160000000     0.632630000000     1.42869    
Zr19     Zr     0.456080000000     0.506440000000     0.999690000000     1.43302    
Zr20     Zr     0.535480000000     0.634680000000     0.001190000000     1.42736    
Zr21     Zr     0.575490000000     0.436140000000     0.064140000000     1.42851    
Zr22     Zr     0.515450000000     0.557860000000     0.128740000000     1.43001    
Zr23     Zr     0.596110000000     0.513070000000     0.936500000000     1.43373    
Zr24     Zr     0.655670000000     0.565040000000     0.064950000000     1.42632    


