data_structure

_audit_creation_method RASPA-1.0
_audit_creation_date 2023-5-23
_audit_author_name 'Poobodin Mano'

_cell_length_a    38.2146
_cell_length_b    38.2179
_cell_length_c    27.1694
_cell_angle_alpha 90
_cell_angle_beta  90
_cell_angle_gamma 89.9998
_cell_volume      39680.4

_symmetry_cell_setting          triclinic
_symmetry_space_group_name_Hall 'P 1'
_symmetry_space_group_name_H-M  'P 1'
_symmetry_Int_Tables_number     1

_symmetry_equiv_pos_as_xyz 'x,y,z'

loop_
_atom_site_label
_atom_site_type_symbol
_atom_site_fract_x
_atom_site_fract_y
_atom_site_fract_z
_atom_site_charge
C1       C      0.049440000000     0.916780000000     0.861470000000     0.394593   
C2       C      0.924260000000     0.045040000000     0.861680000000     0.394571   
C3       C      0.923750000000     0.917250000000     0.861590000000     0.394371   
C4       C      0.049610000000     0.044860000000     0.861590000000     0.394565   
C5       C      0.922960000000     0.043530000000     0.112250000000     0.394537   
C6       C      0.050960000000     0.918080000000     0.111980000000     0.394716   
C7       C      0.861120000000     0.981070000000     0.988720000000     0.399577   
C8       C      0.987050000000     0.106650000000     0.985800000000     0.3997     
C9       C      0.112650000000     0.980710000000     0.988410000000     0.399659   
C10      C      0.986690000000     0.855100000000     0.985500000000     0.399392   
C11      C      0.923190000000     0.917870000000     0.112160000000     0.394474   
C12      C      0.051000000000     0.043470000000     0.112130000000     0.394652   
C13      C      0.987060000000     0.355090000000     0.988190000000     0.399706   
C14      C      0.861130000000     0.480670000000     0.985240000000     0.399745   
C15      C      0.924080000000     0.417100000000     0.112240000000     0.394457   
C16      C      0.923160000000     0.417820000000     0.861660000000     0.394683   
C17      C      0.986700000000     0.606640000000     0.987890000000     0.399641   
C18      C      0.112670000000     0.481030000000     0.984940000000     0.399749   
C19      C      0.924260000000     0.544970000000     0.112060000000     0.394543   
C20      C      0.922730000000     0.543380000000     0.861530000000     0.394686   
C21      C      0.050690000000     0.417930000000     0.861530000000     0.394347   
C22      C      0.049940000000     0.417170000000     0.112090000000     0.394555   
C23      C      0.049870000000     0.544760000000     0.111970000000     0.394482   
C24      C      0.050570000000     0.543840000000     0.861440000000     0.394504   
C25      C      0.361130000000     0.980720000000     0.988420000000     0.399654   
C26      C      0.486730000000     0.106660000000     0.985810000000     0.399861   
C27      C      0.422770000000     0.043470000000     0.112130000000     0.394619   
C28      C      0.424210000000     0.044890000000     0.861580000000     0.394557   
C29      C      0.612660000000     0.981080000000     0.988750000000     0.399737   
C30      C      0.487090000000     0.855100000000     0.985530000000     0.399665   
C31      C      0.550800000000     0.043550000000     0.112270000000     0.394642   
C32      C      0.549550000000     0.045030000000     0.861720000000     0.394591   
C33      C      0.424320000000     0.916820000000     0.861490000000     0.394535   
C34      C      0.422820000000     0.918100000000     0.112010000000     0.394708   
C35      C      0.550600000000     0.917890000000     0.112190000000     0.394569   
C36      C      0.550010000000     0.917230000000     0.861630000000     0.39457    
C37      C      0.361140000000     0.481040000000     0.984930000000     0.399624   
C38      C      0.486740000000     0.355100000000     0.988180000000     0.399864   
C39      C      0.423080000000     0.417970000000     0.861540000000     0.394593   
C40      C      0.423870000000     0.417180000000     0.112100000000     0.394298   
C41      C      0.612670000000     0.480680000000     0.985210000000     0.399825   
C42      C      0.487110000000     0.606660000000     0.987870000000     0.399545   
C43      C      0.550620000000     0.417800000000     0.861620000000     0.394446   
C44      C      0.549750000000     0.417130000000     0.112220000000     0.394311   
C45      C      0.423940000000     0.544780000000     0.111950000000     0.394539   
C46      C      0.423270000000     0.543880000000     0.861400000000     0.394459   
C47      C      0.551090000000     0.543360000000     0.861490000000     0.394559   
C48      C      0.549530000000     0.545000000000     0.112030000000     0.394492   
C49      C      0.175050000000     0.291650000000     0.614540000000     0.380148   
C50      C      0.177020000000     0.168090000000     0.359130000000     0.380792   
C51      C      0.174950000000     0.170230000000     0.614640000000     0.379076   
C52      C      0.176820000000     0.293280000000     0.358970000000     0.381776   
C53      C      0.297010000000     0.293290000000     0.359000000000     0.380735   
C54      C      0.298950000000     0.170380000000     0.614660000000     0.380334   
C55      C      0.296750000000     0.168100000000     0.359090000000     0.381926   
C56      C      0.298650000000     0.291800000000     0.614520000000     0.378962   
C57      C      0.174810000000     0.791330000000     0.614610000000     0.380283   
C58      C      0.176830000000     0.668450000000     0.358950000000     0.380734   
C59      C      0.175170000000     0.669910000000     0.614470000000     0.379026   
C60      C      0.177010000000     0.793600000000     0.359050000000     0.38211    
C61      C      0.296740000000     0.793670000000     0.359090000000     0.380823   
C62      C      0.298790000000     0.670120000000     0.614490000000     0.380098   
C63      C      0.297010000000     0.668520000000     0.358910000000     0.381803   
C64      C      0.298830000000     0.791550000000     0.614600000000     0.379055   
C65      C      0.798910000000     0.170370000000     0.614710000000     0.380322   
C66      C      0.797060000000     0.293260000000     0.359050000000     0.380598   
C67      C      0.798680000000     0.291760000000     0.614570000000     0.37917    
C68      C      0.796750000000     0.168070000000     0.359140000000     0.381912   
C69      C      0.676960000000     0.168130000000     0.359190000000     0.380891   
C70      C      0.675080000000     0.291680000000     0.614580000000     0.380255   
C71      C      0.676830000000     0.293320000000     0.359000000000     0.381676   
C72      C      0.674920000000     0.170290000000     0.614690000000     0.379125   
C73      C      0.797660000000     0.792620000000     0.614660000000     0.380299   
C74      C      0.674420000000     0.791020000000     0.359130000000     0.380791   
C75      C      0.676030000000     0.792570000000     0.614650000000     0.379012   
C76      C      0.799410000000     0.790950000000     0.359090000000     0.381692   
C77      C      0.799590000000     0.671000000000     0.359010000000     0.380578   
C78      C      0.676370000000     0.668740000000     0.614530000000     0.380472   
C79      C      0.674170000000     0.671080000000     0.358970000000     0.382016   
C80      C      0.797530000000     0.668800000000     0.614520000000     0.379366   
C81      C      0.379630000000     0.372220000000     0.136370000000    -0.0229286  
C82      C      0.340360000000     0.338320000000     0.333320000000    -0.0241379  
C83      C      0.310010000000     0.305160000000     0.270070000000    -0.0236426  
C84      C      0.335140000000     0.330240000000     0.247600000000     0.0129093  
C85      C      0.352440000000     0.349020000000     0.283810000000     0.014062   
C86      C      0.377770000000     0.374210000000     0.272180000000    -0.0666617  
C87      C      0.410170000000     0.404620000000     0.200230000000    -0.0231454  
C88      C      0.342140000000     0.335830000000     0.197510000000    -0.0658194  
C89      C      0.384820000000     0.379720000000     0.222200000000     0.0138442  
C90      C      0.367450000000     0.361140000000     0.185850000000     0.0128867  
C91      C      0.311470000000     0.303830000000     0.703450000000    -0.0238691  
C92      C      0.409840000000     0.405000000000     0.773400000000    -0.0230738  
C93      C      0.378640000000     0.373210000000     0.837240000000    -0.0228813  
C94      C      0.367260000000     0.361380000000     0.787730000000     0.0127984  
C95      C      0.385060000000     0.379560000000     0.751390000000     0.01371    
C96      C      0.378950000000     0.373150000000     0.701380000000    -0.0667795  
C97      C      0.342810000000     0.336050000000     0.640160000000    -0.0244515  
C98      C      0.342340000000     0.335700000000     0.776050000000    -0.0659317  
C99      C      0.354070000000     0.347530000000     0.689720000000     0.0138628  
C100     C      0.336240000000     0.329250000000     0.725930000000     0.0127155  
C101     C      0.410230000000     0.557330000000     0.200070000000    -0.0231681  
C102     C      0.310050000000     0.656730000000     0.269970000000    -0.0236043  
C103     C      0.340400000000     0.623530000000     0.333200000000    -0.0241402  
C104     C      0.352480000000     0.612860000000     0.283670000000     0.0140133  
C105     C      0.335190000000     0.631670000000     0.247480000000     0.0131394  
C106     C      0.342210000000     0.626130000000     0.197390000000    -0.065879   
C107     C      0.379730000000     0.589790000000     0.136220000000    -0.0229621  
C108     C      0.377810000000     0.587690000000     0.272030000000    -0.0666386  
C109     C      0.367520000000     0.600820000000     0.185710000000     0.0129622  
C110     C      0.384880000000     0.582220000000     0.222050000000     0.0137881  
C111     C      0.410110000000     0.556930000000     0.773240000000    -0.0230834  
C112     C      0.311730000000     0.658140000000     0.703390000000    -0.0238468  
C113     C      0.343110000000     0.626010000000     0.640070000000    -0.0237025  
C114     C      0.354380000000     0.614490000000     0.689610000000     0.0130643  
C115     C      0.336530000000     0.632730000000     0.725840000000     0.0129516  
C116     C      0.342620000000     0.626250000000     0.775950000000    -0.0661138  
C117     C      0.378900000000     0.588690000000     0.837100000000    -0.0229037  
C118     C      0.379250000000     0.588860000000     0.701240000000    -0.0666383  
C119     C      0.367540000000     0.600560000000     0.787610000000     0.0128708  
C120     C      0.385350000000     0.582410000000     0.751250000000     0.0134602  
C121     C      0.661990000000     0.658400000000     0.270020000000    -0.0236813  
C122     C      0.561520000000     0.559270000000     0.200140000000    -0.0230948  
C123     C      0.594110000000     0.589630000000     0.136300000000    -0.0229617  
C124     C      0.605210000000     0.601770000000     0.185780000000     0.0129924  
C125     C      0.586540000000     0.584500000000     0.222120000000     0.0137369  
C126     C      0.592240000000     0.591360000000     0.272110000000    -0.0665932  
C127     C      0.628710000000     0.628170000000     0.333280000000    -0.0240502  
C128     C      0.630800000000     0.626800000000     0.197450000000    -0.0659357  
C129     C      0.617690000000     0.616410000000     0.283750000000     0.0139145  
C130     C      0.636550000000     0.633640000000     0.247540000000     0.0132027  
C131     C      0.564620000000     0.556030000000     0.773340000000    -0.023095   
C132     C      0.664800000000     0.655430000000     0.703430000000    -0.0238289  
C133     C      0.632660000000     0.624020000000     0.640130000000    -0.0237259  
C134     C      0.621530000000     0.612390000000     0.689670000000     0.013086   
C135     C      0.639760000000     0.630260000000     0.725890000000     0.0129566  
C136     C      0.633520000000     0.623940000000     0.776010000000    -0.0660828  
C137     C      0.596340000000     0.587300000000     0.837190000000    -0.0229172  
C138     C      0.596160000000     0.587260000000     0.701330000000    -0.0666414  
C139     C      0.608100000000     0.598750000000     0.787680000000     0.0129032  
C140     C      0.589970000000     0.580910000000     0.751340000000     0.0134612  
C141     C      0.633460000000     0.338350000000     0.333370000000    -0.0241059  
C142     C      0.593950000000     0.372130000000     0.136480000000    -0.0230119  
C143     C      0.563500000000     0.404610000000     0.200360000000    -0.0231932  
C144     C      0.588870000000     0.379710000000     0.222310000000     0.0137621  
C145     C      0.606190000000     0.361100000000     0.185950000000     0.0129623  
C146     C      0.631510000000     0.335780000000     0.197570000000    -0.0659296  
C147     C      0.663720000000     0.305150000000     0.270080000000    -0.0236295  
C148     C      0.595990000000     0.374230000000     0.272280000000    -0.0666273  
C149     C      0.638580000000     0.330230000000     0.247650000000     0.0131466  
C150     C      0.621330000000     0.349040000000     0.283870000000     0.0139439  
C151     C      0.563810000000     0.404790000000     0.773480000000    -0.023103   
C152     C      0.662180000000     0.303640000000     0.703490000000    -0.0237391  
C153     C      0.630800000000     0.335820000000     0.640220000000    -0.0237402  
C154     C      0.619540000000     0.347300000000     0.689780000000     0.0131969  
C155     C      0.637390000000     0.329030000000     0.725990000000     0.0129092  
C156     C      0.631300000000     0.335480000000     0.776100000000    -0.0659946  
C157     C      0.595020000000     0.373000000000     0.837320000000    -0.0229248  
C158     C      0.594660000000     0.372920000000     0.701450000000    -0.0666936  
C159     C      0.606380000000     0.361160000000     0.787810000000     0.0128592  
C160     C      0.588570000000     0.379330000000     0.751470000000     0.0135775  
C161     C      0.518960000000     0.798270000000     0.985300000000    -0.0234416  
C162     C      0.455320000000     0.663510000000     0.988000000000    -0.0234573  
C163     C      0.518970000000     0.663500000000     0.987990000000    -0.0234969  
C164     C      0.505290000000     0.699700000000     0.987340000000     0.0136404  
C165     C      0.469010000000     0.699700000000     0.987330000000     0.0136191  
C166     C      0.449830000000     0.730880000000     0.986620000000    -0.0668521  
C167     C      0.455310000000     0.798250000000     0.985280000000    -0.0235053  
C168     C      0.524470000000     0.730880000000     0.986630000000    -0.0668014  
C169     C      0.469000000000     0.762050000000     0.985910000000     0.0136536  
C170     C      0.505290000000     0.762060000000     0.985920000000     0.013612   
C171     C      0.454880000000     0.298260000000     0.988370000000    -0.0234149  
C172     C      0.518530000000     0.163520000000     0.985700000000    -0.0234881  
C173     C      0.454880000000     0.163500000000     0.985630000000    -0.0234475  
C174     C      0.468550000000     0.199700000000     0.986290000000     0.0135671  
C175     C      0.504840000000     0.199710000000     0.986340000000     0.0136613  
C176     C      0.524010000000     0.230880000000     0.987080000000    -0.0668959  
C177     C      0.518530000000     0.298240000000     0.988450000000    -0.0234717  
C178     C      0.449370000000     0.230880000000     0.986990000000    -0.0668047  
C179     C      0.504840000000     0.262050000000     0.987780000000     0.0136582  
C180     C      0.468550000000     0.262060000000     0.987740000000     0.0135557  
C181     C      0.378170000000     0.873550000000     0.136310000000    -0.0229005  
C182     C      0.339660000000     0.839110000000     0.333360000000    -0.0243008  
C183     C      0.309370000000     0.805830000000     0.270150000000    -0.0236803  
C184     C      0.334160000000     0.831220000000     0.247630000000     0.0129929  
C185     C      0.351420000000     0.850070000000     0.283810000000     0.0142742  
C186     C      0.376510000000     0.875470000000     0.272120000000    -0.0666483  
C187     C      0.408610000000     0.906100000000     0.200110000000    -0.0231137  
C188     C      0.340980000000     0.836930000000     0.197530000000    -0.0657942  
C189     C      0.383360000000     0.881130000000     0.222130000000     0.0139999  
C190     C      0.366040000000     0.862470000000     0.185810000000     0.0129629  
C191     C      0.312090000000     0.803190000000     0.703520000000    -0.0237127  
C192     C      0.411520000000     0.903380000000     0.773340000000    -0.0231734  
C193     C      0.380350000000     0.871600000000     0.837210000000    -0.0228294  
C194     C      0.368820000000     0.859880000000     0.787730000000     0.0126352  
C195     C      0.386600000000     0.878050000000     0.751360000000     0.0138006  
C196     C      0.380180000000     0.871900000000     0.701360000000    -0.0668579  
C197     C      0.343380000000     0.835410000000     0.640210000000    -0.024408   
C198     C      0.343630000000     0.834450000000     0.776070000000    -0.0658554  
C199     C      0.355040000000     0.846530000000     0.689740000000     0.013913   
C200     C      0.337240000000     0.828250000000     0.725970000000     0.0125519  
C201     C      0.378080000000     0.087980000000     0.136410000000    -0.0229236  
C202     C      0.339710000000     0.122680000000     0.333430000000    -0.0241312  
C203     C      0.309380000000     0.155870000000     0.270170000000    -0.0235556  
C204     C      0.334140000000     0.130440000000     0.247680000000     0.0131545  
C205     C      0.351440000000     0.111650000000     0.283880000000     0.0141601  
C206     C      0.376530000000     0.086230000000     0.272230000000    -0.0666503  
C207     C      0.408590000000     0.055520000000     0.200250000000    -0.0231636  
C208     C      0.340930000000     0.124660000000     0.197580000000    -0.0657723  
C209     C      0.383340000000     0.080510000000     0.222240000000     0.0139856  
C210     C      0.365980000000     0.099110000000     0.185900000000     0.0129918  
C211     C      0.343640000000     0.126650000000     0.640260000000    -0.0238309  
C212     C      0.380220000000     0.090100000000     0.837300000000    -0.0229215  
C213     C      0.411520000000     0.058430000000     0.773430000000    -0.0231277  
C214     C      0.386640000000     0.083810000000     0.751440000000     0.0136344  
C215     C      0.368790000000     0.101910000000     0.787810000000     0.0127683  
C216     C      0.343620000000     0.127360000000     0.776140000000    -0.0660238  
C217     C      0.312210000000     0.158740000000     0.703570000000    -0.0237025  
C218     C      0.380340000000     0.090050000000     0.701440000000    -0.0667271  
C219     C      0.337340000000     0.133660000000     0.726030000000     0.0128014  
C220     C      0.355220000000     0.115450000000     0.689800000000     0.0132481  
C221     C      0.595420000000     0.088120000000     0.136570000000    -0.0229536  
C222     C      0.633980000000     0.122720000000     0.333550000000    -0.0242865  
C223     C      0.664260000000     0.155920000000     0.270270000000    -0.0235745  
C224     C      0.639450000000     0.130530000000     0.247800000000     0.012931   
C225     C      0.622190000000     0.111720000000     0.284020000000     0.0142588  
C226     C      0.597080000000     0.086310000000     0.272380000000    -0.0666686  
C227     C      0.564970000000     0.055610000000     0.200410000000    -0.0231893  
C228     C      0.632620000000     0.124780000000     0.197710000000    -0.0657677  
C229     C      0.590220000000     0.080610000000     0.222390000000     0.014028   
C230     C      0.607550000000     0.099240000000     0.186050000000     0.0129355  
C231     C      0.562320000000     0.058490000000     0.773580000000    -0.0232137  
C232     C      0.661690000000     0.158680000000     0.703630000000    -0.0237805  
C233     C      0.630340000000     0.126460000000     0.640360000000    -0.0244949  
C234     C      0.618710000000     0.115350000000     0.689920000000     0.0140135  
C235     C      0.636540000000     0.133630000000     0.726120000000     0.0126028  
C236     C      0.630200000000     0.127430000000     0.776240000000    -0.0658723  
C237     C      0.593520000000     0.090270000000     0.837430000000    -0.0228374  
C238     C      0.593590000000     0.089970000000     0.701580000000    -0.0668532  
C239     C      0.605020000000     0.102000000000     0.787930000000     0.0126766  
C240     C      0.587220000000     0.083820000000     0.751580000000     0.0139165  
C241     C      0.563080000000     0.904150000000     0.200330000000    -0.0232195  
C242     C      0.662600000000     0.804080000000     0.270210000000    -0.0236514  
C243     C      0.629360000000     0.834360000000     0.333460000000    -0.0243071  
C244     C      0.618690000000     0.846460000000     0.283940000000     0.014309   
C245     C      0.637520000000     0.829190000000     0.247740000000     0.0129382  
C246     C      0.631980000000     0.836220000000     0.197660000000    -0.0657149  
C247     C      0.595610000000     0.873710000000     0.136500000000    -0.0228601  
C248     C      0.593470000000     0.871750000000     0.272300000000    -0.066714   
C249     C      0.606650000000     0.861510000000     0.185980000000     0.0128759  
C250     C      0.588000000000     0.878830000000     0.222320000000     0.0140554  
C251     C      0.563010000000     0.904000000000     0.773490000000    -0.0232185  
C252     C      0.664050000000     0.805450000000     0.703590000000    -0.0237277  
C253     C      0.631820000000     0.836760000000     0.640300000000    -0.0245277  
C254     C      0.620390000000     0.848090000000     0.689850000000     0.0140452  
C255     C      0.638680000000     0.830280000000     0.726070000000     0.0125358  
C256     C      0.632270000000     0.836440000000     0.776180000000    -0.0658463  
C257     C      0.594820000000     0.872830000000     0.837350000000    -0.0228894  
C258     C      0.594800000000     0.873000000000     0.701490000000    -0.066888   
C259     C      0.606620000000     0.861400000000     0.787850000000     0.0126588  
C260     C      0.588430000000     0.879180000000     0.751500000000     0.0138887  
C261     C      0.669500000000     0.448810000000     0.983990000000    -0.0234421  
C262     C      0.804280000000     0.512460000000     0.983960000000    -0.0235156  
C263     C      0.804300000000     0.448810000000     0.984010000000    -0.0234831  
C264     C      0.768090000000     0.462480000000     0.983540000000     0.0136341  
C265     C      0.768080000000     0.498760000000     0.983510000000     0.0136777  
C266     C      0.736900000000     0.517940000000     0.983530000000    -0.0668667  
C267     C      0.669530000000     0.512460000000     0.983940000000    -0.0235277  
C268     C      0.736900000000     0.443310000000     0.983580000000    -0.0667858  
C269     C      0.705720000000     0.498770000000     0.983510000000     0.013687   
C270     C      0.705720000000     0.462480000000     0.983540000000     0.0136216  
C271     C      0.169500000000     0.512890000000     0.983560000000    -0.0234617  
C272     C      0.304280000000     0.449250000000     0.983620000000    -0.023529   
C273     C      0.304300000000     0.512900000000     0.983550000000    -0.0235132  
C274     C      0.268090000000     0.499220000000     0.983100000000     0.0136571  
C275     C      0.268080000000     0.462940000000     0.983140000000     0.0137074  
C276     C      0.236900000000     0.443760000000     0.983190000000    -0.0668714  
C277     C      0.169520000000     0.449250000000     0.983620000000    -0.0234538  
C278     C      0.236900000000     0.518400000000     0.983110000000    -0.0668208  
C279     C      0.205720000000     0.462940000000     0.983150000000     0.013695   
C280     C      0.205710000000     0.499220000000     0.983110000000     0.0136451  
C281     C      0.810150000000     0.305090000000     0.270120000000    -0.0236776  
C282     C      0.910370000000     0.404550000000     0.200380000000    -0.0232566  
C283     C      0.879900000000     0.372090000000     0.136510000000    -0.02289    
C284     C      0.867680000000     0.361030000000     0.185980000000     0.0128161  
C285     C      0.885010000000     0.379630000000     0.222340000000     0.0139698  
C286     C      0.877920000000     0.374140000000     0.272310000000    -0.066733   
C287     C      0.840450000000     0.338270000000     0.333410000000    -0.024245   
C288     C      0.842360000000     0.335720000000     0.197610000000    -0.0658105  
C289     C      0.852580000000     0.348950000000     0.283910000000     0.0141756  
C290     C      0.835310000000     0.330160000000     0.247690000000     0.0128866  
C291     C      0.811520000000     0.303750000000     0.703500000000    -0.0237802  
C292     C      0.909920000000     0.404860000000     0.773520000000    -0.0231645  
C293     C      0.878750000000     0.373020000000     0.837350000000    -0.0228264  
C294     C      0.867350000000     0.361220000000     0.787830000000     0.0127258  
C295     C      0.885140000000     0.379420000000     0.751500000000     0.0139118  
C296     C      0.879010000000     0.373050000000     0.701480000000    -0.066838   
C297     C      0.842860000000     0.335990000000     0.640240000000    -0.024472   
C298     C      0.842430000000     0.335550000000     0.776120000000    -0.0657871  
C299     C      0.854130000000     0.347440000000     0.689810000000     0.0140593  
C300     C      0.836310000000     0.329140000000     0.726000000000     0.012642   
C301     C      0.811780000000     0.658340000000     0.270070000000    -0.0236344  
C302     C      0.912250000000     0.559210000000     0.200180000000    -0.0231934  
C303     C      0.879680000000     0.589590000000     0.136330000000    -0.0229188  
C304     C      0.868550000000     0.601720000000     0.185810000000     0.0128488  
C305     C      0.887210000000     0.584430000000     0.222160000000     0.0140132  
C306     C      0.881500000000     0.591280000000     0.272150000000    -0.0667192  
C307     C      0.845040000000     0.628090000000     0.333320000000    -0.0242714  
C308     C      0.842970000000     0.626750000000     0.197490000000    -0.0657761  
C309     C      0.856050000000     0.616330000000     0.283790000000     0.0142731  
C310     C      0.837210000000     0.633570000000     0.247580000000     0.012866   
C311     C      0.809140000000     0.655540000000     0.703430000000    -0.0237374  
C312     C      0.909260000000     0.556100000000     0.773380000000    -0.0232079  
C313     C      0.877490000000     0.587320000000     0.837220000000    -0.0228503  
C314     C      0.865770000000     0.598820000000     0.787710000000     0.0127165  
C315     C      0.883940000000     0.581010000000     0.751370000000     0.0139586  
C316     C      0.877800000000     0.587390000000     0.701360000000    -0.0668694  
C317     C      0.841340000000     0.624190000000     0.640150000000    -0.0244377  
C318     C      0.840360000000     0.624020000000     0.776030000000    -0.0658064  
C319     C      0.852450000000     0.612540000000     0.689700000000     0.0140629  
C320     C      0.834170000000     0.630380000000     0.725910000000     0.0126272  
C321     C      0.094080000000     0.589770000000     0.136250000000    -0.0229428  
C322     C      0.133480000000     0.623420000000     0.333230000000    -0.0242839  
C323     C      0.163790000000     0.656660000000     0.270010000000    -0.0236469  
C324     C      0.138650000000     0.631600000000     0.247520000000     0.0128707  
C325     C      0.121370000000     0.612780000000     0.283700000000     0.0142531  
C326     C      0.096040000000     0.587610000000     0.272050000000    -0.0667464  
C327     C      0.063600000000     0.557280000000     0.200090000000    -0.0232309  
C328     C      0.131610000000     0.626080000000     0.197420000000    -0.0657648  
C329     C      0.088960000000     0.582160000000     0.222070000000     0.0140038  
C330     C      0.106300000000     0.600790000000     0.185740000000     0.0128819  
C331     C      0.063830000000     0.556780000000     0.773280000000    -0.0231501  
C332     C      0.162280000000     0.657900000000     0.703390000000    -0.0238185  
C333     C      0.131010000000     0.625640000000     0.640080000000    -0.0244574  
C334     C      0.119690000000     0.614190000000     0.689630000000     0.0139744  
C335     C      0.137480000000     0.632500000000     0.725850000000     0.0126579  
C336     C      0.131330000000     0.626090000000     0.775960000000    -0.0658656  
C337     C      0.094960000000     0.588620000000     0.837130000000    -0.022797   
C338     C      0.094800000000     0.588580000000     0.701270000000    -0.0668699  
C339     C      0.106390000000     0.600420000000     0.787630000000     0.0126988  
C340     C      0.088630000000     0.582210000000     0.751280000000     0.013874   
C341     C      0.094190000000     0.372210000000     0.136360000000    -0.0229823  
C342     C      0.133450000000     0.338300000000     0.333300000000    -0.0241799  
C343     C      0.163800000000     0.305140000000     0.270030000000    -0.0236649  
C344     C      0.138690000000     0.330240000000     0.247570000000     0.0131318  
C345     C      0.121380000000     0.349010000000     0.283780000000     0.0140929  
C346     C      0.096060000000     0.374210000000     0.272160000000    -0.0666432  
C347     C      0.063650000000     0.404620000000     0.200220000000    -0.0231887  
C348     C      0.131680000000     0.335830000000     0.197490000000    -0.0658525  
C349     C      0.089010000000     0.379720000000     0.222190000000     0.0138987  
C350     C      0.106380000000     0.361140000000     0.185830000000     0.0129502  
C351     C      0.095110000000     0.373160000000     0.837220000000    -0.0228989  
C352     C      0.130750000000     0.335770000000     0.640150000000    -0.0237575  
C353     C      0.162170000000     0.303660000000     0.703450000000    -0.0237457  
C354     C      0.137390000000     0.329070000000     0.725920000000     0.0128858  
C355     C      0.119520000000     0.347300000000     0.689710000000     0.013269   
C356     C      0.094660000000     0.372940000000     0.701360000000    -0.0666788  
C357     C      0.063850000000     0.404880000000     0.773380000000    -0.0230806  
C358     C      0.131340000000     0.335570000000     0.776030000000    -0.0659747  
C359     C      0.088600000000     0.379400000000     0.751370000000     0.0136476  
C360     C      0.106440000000     0.361270000000     0.787720000000     0.0128253  
C361     C      0.804290000000     0.012940000000     0.990080000000    -0.0230576  
C362     C      0.669520000000     0.949300000000     0.990140000000    -0.0234955  
C363     C      0.669500000000     0.012940000000     0.990110000000    -0.0230662  
C364     C      0.705710000000     0.999270000000     0.990600000000     0.0131132  
C365     C      0.705710000000     0.962990000000     0.990620000000     0.0138667  
C366     C      0.736890000000     0.943810000000     0.990590000000    -0.0670826  
C367     C      0.804270000000     0.949290000000     0.990120000000    -0.0235705  
C368     C      0.736890000000     0.018450000000     0.990550000000    -0.0662174  
C369     C      0.768070000000     0.962990000000     0.990600000000     0.0138855  
C370     C      0.768080000000     0.999270000000     0.990580000000     0.0130864  
C371     C      0.169500000000     0.948860000000     0.989630000000    -0.0235731  
C372     C      0.304270000000     0.012510000000     0.989730000000    -0.023123   
C373     C      0.304290000000     0.948860000000     0.989650000000    -0.0235554  
C374     C      0.268080000000     0.962540000000     0.990120000000     0.0138537  
C375     C      0.268070000000     0.998820000000     0.990180000000     0.0131557  
C376     C      0.236890000000     0.017990000000     0.990170000000    -0.0662046  
C377     C      0.169510000000     0.012500000000     0.989730000000    -0.0230819  
C378     C      0.236890000000     0.943360000000     0.990070000000    -0.0669779  
C379     C      0.205710000000     0.998810000000     0.990170000000     0.0131324  
C380     C      0.205710000000     0.962530000000     0.990110000000     0.0138743  
C381     C      0.954830000000     0.798260000000     0.985270000000    -0.0233844  
C382     C      0.018480000000     0.663510000000     0.988010000000    -0.0234347  
C383     C      0.954830000000     0.663480000000     0.988010000000    -0.0234618  
C384     C      0.968510000000     0.699690000000     0.987350000000     0.0133814  
C385     C      0.004790000000     0.699700000000     0.987340000000     0.0138913  
C386     C      0.023970000000     0.730870000000     0.986620000000    -0.0670402  
C387     C      0.018480000000     0.798240000000     0.985260000000    -0.0234736  
C388     C      0.949320000000     0.730870000000     0.986620000000    -0.0666423  
C389     C      0.004790000000     0.762050000000     0.985900000000     0.0138928  
C390     C      0.968500000000     0.762050000000     0.985900000000     0.0133548  
C391     C      0.018920000000     0.298250000000     0.988370000000    -0.0234244  
C392     C      0.955260000000     0.163510000000     0.985700000000    -0.0234524  
C393     C      0.018910000000     0.163490000000     0.985620000000    -0.0233893  
C394     C      0.005240000000     0.199690000000     0.986290000000     0.0137879  
C395     C      0.968960000000     0.199700000000     0.986340000000     0.0134226  
C396     C      0.949780000000     0.230870000000     0.987080000000    -0.0667399  
C397     C      0.955270000000     0.298230000000     0.988450000000    -0.0233912  
C398     C      0.024420000000     0.230870000000     0.986990000000    -0.0669374  
C399     C      0.968960000000     0.262040000000     0.987780000000     0.013395   
C400     C      0.005240000000     0.262050000000     0.987740000000     0.0138106  
C401     C      0.844470000000     0.834280000000     0.333420000000    -0.0240193  
C402     C      0.878190000000     0.873670000000     0.136460000000    -0.0229774  
C403     C      0.910730000000     0.904090000000     0.200290000000    -0.0231104  
C404     C      0.885820000000     0.878760000000     0.222280000000     0.0137239  
C405     C      0.867170000000     0.861450000000     0.185940000000     0.0130608  
C406     C      0.841840000000     0.836170000000     0.197610000000    -0.0659093  
C407     C      0.811220000000     0.804020000000     0.270170000000    -0.0235922  
C408     C      0.880360000000     0.871670000000     0.272260000000    -0.0665574  
C409     C      0.836310000000     0.829120000000     0.247700000000     0.013232   
C410     C      0.855150000000     0.846380000000     0.283900000000     0.0139325  
C411     C      0.878940000000     0.872860000000     0.837320000000    -0.0229813  
C412     C      0.841760000000     0.836930000000     0.640280000000    -0.0237039  
C413     C      0.809610000000     0.805560000000     0.703590000000    -0.0238062  
C414     C      0.834990000000     0.830390000000     0.726050000000     0.0128882  
C415     C      0.853230000000     0.848230000000     0.689820000000     0.0129943  
C416     C      0.878830000000     0.873140000000     0.701460000000    -0.0666654  
C417     C      0.910700000000     0.904070000000     0.773450000000    -0.023061   
C418     C      0.841440000000     0.836510000000     0.776160000000    -0.0661376  
C419     C      0.885250000000     0.879270000000     0.751460000000     0.0133771  
C420     C      0.867090000000     0.861470000000     0.787820000000     0.012836   
C421     C      0.908750000000     0.055550000000     0.200390000000    -0.0231258  
C422     C      0.809460000000     0.155870000000     0.270220000000    -0.0235871  
C423     C      0.839710000000     0.122650000000     0.333510000000    -0.0240355  
C424     C      0.851500000000     0.111640000000     0.283980000000     0.0139851  
C425     C      0.834250000000     0.130460000000     0.247770000000     0.0132203  
C426     C      0.841100000000     0.124720000000     0.197680000000    -0.0658528  
C427     C      0.878320000000     0.088070000000     0.136540000000    -0.0229208  
C428     C      0.876600000000     0.086230000000     0.272350000000    -0.0665668  
C429     C      0.866170000000     0.099180000000     0.186020000000     0.0130079  
C430     C      0.883480000000     0.080540000000     0.222360000000     0.0138295  
C431     C      0.880300000000     0.090290000000     0.837410000000    -0.0229829  
C432     C      0.843590000000     0.126640000000     0.640340000000    -0.023735   
C433     C      0.812200000000     0.158800000000     0.703630000000    -0.02378    
C434     C      0.837350000000     0.133740000000     0.726110000000     0.0128868  
C435     C      0.855200000000     0.115490000000     0.689890000000     0.0131357  
C436     C      0.880320000000     0.090100000000     0.701540000000    -0.0666983  
C437     C      0.911530000000     0.058550000000     0.773550000000    -0.0230332  
C438     C      0.843660000000     0.127490000000     0.776220000000    -0.0660965  
C439     C      0.886660000000     0.083910000000     0.751550000000     0.0134891  
C440     C      0.868830000000     0.102060000000     0.787900000000     0.0128564  
C441     C      0.065170000000     0.055520000000     0.200250000000    -0.0230564  
C442     C      0.164400000000     0.155860000000     0.270200000000    -0.0237151  
C443     C      0.134060000000     0.122670000000     0.333450000000    -0.0242144  
C444     C      0.122320000000     0.111650000000     0.283910000000     0.0141526  
C445     C      0.139620000000     0.130440000000     0.247710000000     0.0130075  
C446     C      0.132830000000     0.124670000000     0.197610000000    -0.0657886  
C447     C      0.095680000000     0.087990000000     0.136430000000    -0.0229632  
C448     C      0.097230000000     0.086230000000     0.272250000000    -0.0666519  
C449     C      0.107770000000     0.099120000000     0.185920000000     0.0129852  
C450     C      0.090420000000     0.080510000000     0.222250000000     0.0139017  
C451     C      0.062380000000     0.058320000000     0.773440000000    -0.0231881  
C452     C      0.161740000000     0.158560000000     0.703570000000    -0.0238055  
C453     C      0.130390000000     0.126380000000     0.640280000000    -0.0243291  
C454     C      0.118770000000     0.115230000000     0.689820000000     0.0138338  
C455     C      0.136610000000     0.133490000000     0.726040000000     0.0126237  
C456     C      0.130270000000     0.127250000000     0.776150000000    -0.0659052  
C457     C      0.093610000000     0.090050000000     0.837310000000    -0.0228289  
C458     C      0.093640000000     0.089850000000     0.701450000000    -0.0668787  
C459     C      0.105100000000     0.101810000000     0.787820000000     0.0126827  
C460     C      0.087280000000     0.083670000000     0.751460000000     0.0137697  
C461     C      0.065140000000     0.906060000000     0.200090000000    -0.0230605  
C462     C      0.164360000000     0.805760000000     0.270110000000    -0.0236039  
C463     C      0.134040000000     0.838990000000     0.333330000000    -0.0240083  
C464     C      0.122300000000     0.849990000000     0.283780000000     0.0140032  
C465     C      0.139580000000     0.831160000000     0.247600000000     0.0132509  
C466     C      0.132780000000     0.836890000000     0.197490000000    -0.0658829  
C467     C      0.095610000000     0.873530000000     0.136280000000    -0.0229641  
C468     C      0.097220000000     0.875390000000     0.272100000000    -0.0665366  
C469     C      0.107720000000     0.862430000000     0.185780000000     0.0130819  
C470     C      0.090390000000     0.881070000000     0.222100000000     0.0138002  
C471     C      0.093390000000     0.871540000000     0.837190000000    -0.0229699  
C472     C      0.130090000000     0.835050000000     0.640190000000    -0.0237513  
C473     C      0.161490000000     0.802950000000     0.703520000000    -0.0237677  
C474     C      0.136340000000     0.828010000000     0.725960000000     0.0128412  
C475     C      0.118480000000     0.846230000000     0.689720000000     0.0130604  
C476     C      0.093360000000     0.871630000000     0.701330000000    -0.06668    
C477     C      0.062140000000     0.903240000000     0.773310000000    -0.0230431  
C478     C      0.130020000000     0.834300000000     0.776060000000    -0.0660985  
C479     C      0.087020000000     0.877860000000     0.751330000000     0.0134135  
C480     C      0.104850000000     0.859740000000     0.787710000000     0.0128238  
H1       H      0.916020000000     0.981030000000     0.916340000000     0.209031   
H2       H      0.057700000000     0.980810000000     0.916170000000     0.208901   
H3       H      0.986860000000     0.910020000000     0.057390000000     0.20951    
H4       H      0.987010000000     0.051640000000     0.057600000000     0.209273   
H5       H      0.916110000000     0.480830000000     0.057490000000     0.209233   
H6       H      0.986960000000     0.410040000000     0.916290000000     0.209543   
H7       H      0.057770000000     0.480980000000     0.057280000000     0.209426   
H8       H      0.986740000000     0.551640000000     0.916130000000     0.209519   
H9       H      0.486770000000     0.051650000000     0.057610000000     0.209303   
H10      H      0.416090000000     0.980820000000     0.916180000000     0.208903   
H11      H      0.486920000000     0.910030000000     0.057420000000     0.209543   
H12      H      0.557760000000     0.981030000000     0.916370000000     0.209252   
H13      H      0.486840000000     0.410050000000     0.916280000000     0.209542   
H14      H      0.416030000000     0.481000000000     0.057270000000     0.209225   
H15      H      0.487060000000     0.551650000000     0.916100000000     0.209525   
H16      H      0.557690000000     0.480850000000     0.057460000000     0.209299   
H17      H      0.160970000000     0.230960000000     0.416520000000     0.209465   
H18      H      0.236780000000     0.154000000000     0.560440000000     0.203202   
H19      H      0.312830000000     0.230630000000     0.416520000000     0.20943    
H20      H      0.237020000000     0.307780000000     0.560220000000     0.203312   
H21      H      0.201310000000     0.106220000000     0.491840000000     0.124501   
H22      H      0.275310000000     0.101060000000     0.491780000000     0.184499   
H23      H      0.356480000000     0.197740000000     0.515400000000     0.14785    
H24      H      0.362370000000     0.274870000000     0.454520000000     0.198465   
H25      H      0.272520000000     0.355490000000     0.491750000000     0.124372   
H26      H      0.198470000000     0.360650000000     0.491310000000     0.18447    
H27      H      0.117360000000     0.264060000000     0.515690000000     0.147741   
H28      H      0.111480000000     0.186600000000     0.454320000000     0.19853    
H29      H      0.362350000000     0.270050000000     0.515710000000     0.202082   
H30      H      0.155180000000     0.355010000000     0.486070000000     0.202002   
H31      H      0.111410000000     0.191800000000     0.515450000000     0.202184   
H32      H      0.318600000000     0.106680000000     0.486550000000     0.202001   
H33      H      0.160960000000     0.731070000000     0.416490000000     0.209262   
H34      H      0.236820000000     0.653960000000     0.560180000000     0.203305   
H35      H      0.312830000000     0.730830000000     0.416490000000     0.209566   
H36      H      0.236970000000     0.807740000000     0.560410000000     0.203096   
H37      H      0.201350000000     0.606240000000     0.491710000000     0.124452   
H38      H      0.275400000000     0.601120000000     0.491250000000     0.184634   
H39      H      0.356450000000     0.697760000000     0.515640000000     0.147629   
H40      H      0.362290000000     0.775250000000     0.454280000000     0.198618   
H41      H      0.272400000000     0.855550000000     0.491810000000     0.124423   
H42      H      0.198410000000     0.860660000000     0.491760000000     0.184406   
H43      H      0.117290000000     0.763930000000     0.515350000000     0.147712   
H44      H      0.111450000000     0.686780000000     0.454470000000     0.198522   
H45      H      0.362370000000     0.770020000000     0.515400000000     0.202069   
H46      H      0.155120000000     0.855020000000     0.486500000000     0.201703   
H47      H      0.111470000000     0.691610000000     0.515660000000     0.202074   
H48      H      0.318680000000     0.606780000000     0.486010000000     0.202041   
H49      H      0.812830000000     0.230590000000     0.416570000000     0.209329   
H50      H      0.737060000000     0.307800000000     0.560260000000     0.203259   
H51      H      0.660970000000     0.231010000000     0.416570000000     0.209529   
H52      H      0.736730000000     0.154010000000     0.560490000000     0.203154   
H53      H      0.772600000000     0.355470000000     0.491790000000     0.124533   
H54      H      0.698570000000     0.360680000000     0.491330000000     0.184595   
H55      H      0.617380000000     0.264150000000     0.515720000000     0.147727   
H56      H      0.611450000000     0.186690000000     0.454370000000     0.19842    
H57      H      0.701230000000     0.106250000000     0.491920000000     0.124604   
H58      H      0.775210000000     0.101050000000     0.491830000000     0.184599   
H59      H      0.856460000000     0.197680000000     0.515430000000     0.14776    
H60      H      0.862390000000     0.274780000000     0.454560000000     0.198491   
H61      H      0.611380000000     0.191880000000     0.515500000000     0.202074   
H62      H      0.818500000000     0.106630000000     0.486600000000     0.201899   
H63      H      0.862370000000     0.269990000000     0.515760000000     0.202      
H64      H      0.655280000000     0.355080000000     0.486110000000     0.201928   
H65      H      0.737090000000     0.806800000000     0.416640000000     0.209664   
H66      H      0.660000000000     0.730930000000     0.560340000000     0.203237   
H67      H      0.736700000000     0.654960000000     0.416410000000     0.209313   
H68      H      0.813790000000     0.730620000000     0.560340000000     0.203493   
H69      H      0.612260000000     0.766510000000     0.491900000000     0.124586   
H70      H      0.607080000000     0.692490000000     0.491670000000     0.184342   
H71      H      0.703740000000     0.611270000000     0.515200000000     0.14758    
H72      H      0.781040000000     0.605440000000     0.454110000000     0.198461   
H73      H      0.861530000000     0.695200000000     0.491710000000     0.124567   
H74      H      0.866720000000     0.769180000000     0.491450000000     0.184528   
H75      H      0.770140000000     0.850340000000     0.515810000000     0.147563   
H76      H      0.692850000000     0.856330000000     0.454700000000     0.198653   
H77      H      0.775960000000     0.605320000000     0.515260000000     0.202029   
H78      H      0.861120000000     0.812480000000     0.486330000000     0.201651   
H79      H      0.697800000000     0.856280000000     0.515870000000     0.202093   
H80      H      0.612680000000     0.649200000000     0.486320000000     0.201722   
H81      H      0.316540000000     0.277730000000     0.260050000000     0.0433758  
H82      H      0.362360000000     0.327860000000     0.355700000000     0.0410406  
H83      H      0.391290000000     0.388770000000     0.300580000000     0.0438798  
H84      H      0.328630000000     0.321260000000     0.169120000000     0.0431369  
H85      H      0.391380000000     0.349940000000     0.115910000000     0.0434501  
H86      H      0.403920000000     0.432050000000     0.210640000000     0.0413841  
H87      H      0.282740000000     0.310750000000     0.258220000000     0.0450392  
H88      H      0.328410000000     0.360710000000     0.353320000000     0.0474615  
H89      H      0.437350000000     0.398640000000     0.212130000000     0.0434076  
H90      H      0.357740000000     0.383110000000     0.114220000000     0.0417602  
H91      H      0.390130000000     0.351280000000     0.858700000000     0.0414131  
H92      H      0.437230000000     0.399240000000     0.762260000000     0.0413443  
H93      H      0.392830000000     0.387380000000     0.672990000000     0.0436867  
H94      H      0.328440000000     0.321500000000     0.804430000000     0.0429673  
H95      H      0.317970000000     0.276550000000     0.714230000000     0.0444855  
H96      H      0.331400000000     0.358150000000     0.618960000000     0.0449787  
H97      H      0.356380000000     0.384370000000     0.858390000000     0.0433243  
H98      H      0.403360000000     0.432230000000     0.762250000000     0.0432574  
H99      H      0.365120000000     0.325040000000     0.618980000000     0.0426922  
H100     H      0.284040000000     0.309460000000     0.714510000000     0.0431821  
H101     H      0.362390000000     0.633980000000     0.355590000000     0.0444038  
H102     H      0.316580000000     0.684170000000     0.259990000000     0.0436794  
H103     H      0.328710000000     0.640720000000     0.169010000000     0.0431711  
H104     H      0.391330000000     0.573110000000     0.300410000000     0.0432552  
H105     H      0.437400000000     0.563300000000     0.211990000000     0.0433494  
H106     H      0.357840000000     0.578920000000     0.114030000000     0.0417411  
H107     H      0.328440000000     0.601140000000     0.353170000000     0.0434224  
H108     H      0.282790000000     0.651140000000     0.258110000000     0.0449478  
H109     H      0.391510000000     0.612070000000     0.115820000000     0.0434987  
H110     H      0.403960000000     0.529900000000     0.210440000000     0.0413474  
H111     H      0.331750000000     0.603910000000     0.618800000000     0.0404282  
H112     H      0.284310000000     0.652480000000     0.714470000000     0.0431166  
H113     H      0.328700000000     0.640410000000     0.804350000000     0.0429898  
H114     H      0.393130000000     0.574650000000     0.672830000000     0.0427465  
H115     H      0.403620000000     0.529720000000     0.762040000000     0.0431625  
H116     H      0.390390000000     0.610600000000     0.858590000000     0.0414013  
H117     H      0.365410000000     0.637080000000     0.618920000000     0.0418335  
H118     H      0.318210000000     0.685420000000     0.714190000000     0.044459   
H119     H      0.356620000000     0.577540000000     0.858220000000     0.0433293  
H120     H      0.437510000000     0.562680000000     0.762150000000     0.0411932  
H121     H      0.616370000000     0.577880000000     0.115790000000     0.0414457  
H122     H      0.567270000000     0.532080000000     0.212210000000     0.0413248  
H123     H      0.577670000000     0.577850000000     0.300510000000     0.0431744  
H124     H      0.645480000000     0.640190000000     0.169060000000     0.0431681  
H125     H      0.689310000000     0.651610000000     0.259770000000     0.0435738  
H126     H      0.606530000000     0.640280000000     0.353550000000     0.0434537  
H127     H      0.583210000000     0.611540000000     0.114200000000     0.0437031  
H128     H      0.534110000000     0.565750000000     0.210370000000     0.0434465  
H129     H      0.639010000000     0.605980000000     0.355400000000     0.0442424  
H130     H      0.656650000000     0.685770000000     0.258430000000     0.0450794  
H131     H      0.610340000000     0.635280000000     0.619200000000     0.0403164  
H132     H      0.658910000000     0.682730000000     0.714800000000     0.0430347  
H133     H      0.647630000000     0.637930000000     0.804400000000     0.0429876  
H134     H      0.581910000000     0.573410000000     0.672930000000     0.042674   
H135     H      0.537380000000     0.562320000000     0.762070000000     0.041085   
H136     H      0.618310000000     0.575730000000     0.858520000000     0.0434137  
H137     H      0.643840000000     0.601940000000     0.618640000000     0.0419299  
H138     H      0.692210000000     0.649180000000     0.713910000000     0.0445976  
H139     H      0.585260000000     0.609520000000     0.858470000000     0.0413795  
H140     H      0.570570000000     0.528660000000     0.762330000000     0.0432603  
H141     H      0.569780000000     0.432040000000     0.210720000000     0.0412927  
H142     H      0.615820000000     0.382990000000     0.114250000000     0.0417429  
H143     H      0.644970000000     0.321190000000     0.169160000000     0.0431678  
H144     H      0.582510000000     0.388810000000     0.300690000000     0.0432814  
H145     H      0.645450000000     0.360740000000     0.353320000000     0.0433694  
H146     H      0.657190000000     0.277720000000     0.260100000000     0.0436612  
H147     H      0.536340000000     0.398650000000     0.212330000000     0.0434035  
H148     H      0.582150000000     0.349850000000     0.116100000000     0.0435108  
H149     H      0.690980000000     0.310730000000     0.258180000000     0.0449115  
H150     H      0.611490000000     0.327920000000     0.355810000000     0.0444783  
H151     H      0.642170000000     0.357930000000     0.618980000000     0.0404573  
H152     H      0.689600000000     0.309280000000     0.714570000000     0.0431255  
H153     H      0.645220000000     0.321290000000     0.804490000000     0.0429694  
H154     H      0.580780000000     0.387140000000     0.673070000000     0.0428627  
H155     H      0.570290000000     0.432010000000     0.762320000000     0.0431756  
H156     H      0.583520000000     0.351070000000     0.858790000000     0.0414114  
H157     H      0.608490000000     0.324770000000     0.619060000000     0.0419889  
H158     H      0.655690000000     0.276340000000     0.714270000000     0.0444686  
H159     H      0.617280000000     0.384140000000     0.858450000000     0.0433557  
H160     H      0.536410000000     0.399040000000     0.762370000000     0.0413177  
H161     H      0.534990000000     0.658600000000     0.021440000000     0.0442576  
H162     H      0.439290000000     0.658630000000     0.021440000000     0.0442299  
H163     H      0.421500000000     0.730880000000     0.986620000000     0.0427871  
H164     H      0.552800000000     0.730890000000     0.986640000000     0.0428343  
H165     H      0.535190000000     0.803690000000     0.018380000000     0.0423798  
H166     H      0.439300000000     0.803140000000     0.951830000000     0.0434631  
H167     H      0.535190000000     0.658060000000     0.954900000000     0.0415803  
H168     H      0.439090000000     0.658080000000     0.954910000000     0.0415637  
H169     H      0.439070000000     0.803650000000     0.018360000000     0.0423525  
H170     H      0.534980000000     0.803180000000     0.951850000000     0.0434655  
H171     H      0.438880000000     0.158600000000     0.952160000000     0.0434595  
H172     H      0.534570000000     0.158630000000     0.952270000000     0.0434874  
H173     H      0.552340000000     0.230880000000     0.987120000000     0.0427916  
H174     H      0.421040000000     0.230880000000     0.986960000000     0.0427703  
H175     H      0.438670000000     0.303700000000     0.955260000000     0.041573   
H176     H      0.534530000000     0.303130000000     0.021920000000     0.044187   
H177     H      0.438630000000     0.158070000000     0.018690000000     0.042293   
H178     H      0.534740000000     0.158090000000     0.018810000000     0.0423146  
H179     H      0.534790000000     0.303660000000     0.955380000000     0.0415909  
H180     H      0.438840000000     0.303160000000     0.021800000000     0.0441529  
H181     H      0.316130000000     0.778500000000     0.259930000000     0.043361   
H182     H      0.361840000000     0.828790000000     0.355500000000     0.0411803  
H183     H      0.390060000000     0.890040000000     0.300490000000     0.0441233  
H184     H      0.327560000000     0.822260000000     0.169170000000     0.0432117  
H185     H      0.389890000000     0.851280000000     0.115800000000     0.0414594  
H186     H      0.402180000000     0.933520000000     0.210340000000     0.0436382  
H187     H      0.282000000000     0.811200000000     0.258560000000     0.0452467  
H188     H      0.327580000000     0.861310000000     0.353590000000     0.0476982  
H189     H      0.435800000000     0.900320000000     0.212150000000     0.0415679  
H190     H      0.356260000000     0.884470000000     0.114230000000     0.0437504  
H191     H      0.391940000000     0.849620000000     0.858480000000     0.0433798  
H192     H      0.438880000000     0.897450000000     0.762230000000     0.0434861  
H193     H      0.393990000000     0.886180000000     0.672950000000     0.0439008  
H194     H      0.329700000000     0.820300000000     0.804490000000     0.0428535  
H195     H      0.318370000000     0.775780000000     0.713980000000     0.0444868  
H196     H      0.332050000000     0.857730000000     0.619360000000     0.0449295  
H197     H      0.358150000000     0.882660000000     0.858580000000     0.0412986  
H198     H      0.405210000000     0.930630000000     0.762140000000     0.0412622  
H199     H      0.365470000000     0.824310000000     0.618640000000     0.0428241  
H200     H      0.284780000000     0.809030000000     0.714940000000     0.0429485  
H201     H      0.282000000000     0.150500000000     0.258630000000     0.0451007  
H202     H      0.327650000000     0.100510000000     0.353750000000     0.0436904  
H203     H      0.390090000000     0.071710000000     0.300620000000     0.0435867  
H204     H      0.327480000000     0.139310000000     0.169200000000     0.0431793  
H205     H      0.356160000000     0.077010000000     0.114400000000     0.0437718  
H206     H      0.435790000000     0.061330000000     0.212230000000     0.0415841  
H207     H      0.316130000000     0.183190000000     0.259860000000     0.0436049  
H208     H      0.361920000000     0.133030000000     0.355490000000     0.044449   
H209     H      0.402170000000     0.028110000000     0.210540000000     0.0436168  
H210     H      0.389760000000     0.110240000000     0.115820000000     0.0414584  
H211     H      0.438900000000     0.064370000000     0.762440000000     0.0434676  
H212     H      0.391760000000     0.112040000000     0.858690000000     0.0434482  
H213     H      0.329630000000     0.141450000000     0.804550000000     0.0429158  
H214     H      0.394200000000     0.075830000000     0.673030000000     0.0430889  
H215     H      0.365750000000     0.137830000000     0.618840000000     0.0421777  
H216     H      0.284880000000     0.152870000000     0.714900000000     0.0429053  
H217     H      0.405210000000     0.031200000000     0.762110000000     0.0412207  
H218     H      0.357980000000     0.078990000000     0.858530000000     0.0413052  
H219     H      0.318470000000     0.186130000000     0.714120000000     0.0445311  
H220     H      0.332390000000     0.104360000000     0.619270000000     0.0404609  
H221     H      0.657520000000     0.183260000000     0.260010000000     0.0432799  
H222     H      0.611810000000     0.133080000000     0.355670000000     0.0411754  
H223     H      0.583540000000     0.071770000000     0.300780000000     0.0442152  
H224     H      0.646050000000     0.139420000000     0.169320000000     0.0431793  
H225     H      0.583710000000     0.110370000000     0.116020000000     0.0414616  
H226     H      0.571410000000     0.028200000000     0.210690000000     0.0437726  
H227     H      0.691630000000     0.150540000000     0.258660000000     0.0452015  
H228     H      0.646040000000     0.100520000000     0.353810000000     0.0478049  
H229     H      0.537780000000     0.061410000000     0.212420000000     0.041567   
H230     H      0.617340000000     0.077180000000     0.114510000000     0.0437825  
H231     H      0.608240000000     0.137580000000     0.618840000000     0.0428773  
H232     H      0.655410000000     0.186090000000     0.714090000000     0.0445345  
H233     H      0.644150000000     0.141570000000     0.804630000000     0.042914   
H234     H      0.579760000000     0.075700000000     0.673180000000     0.0440104  
H235     H      0.534950000000     0.064410000000     0.762510000000     0.0435145  
H236     H      0.615730000000     0.079200000000     0.858770000000     0.0413495  
H237     H      0.641650000000     0.104140000000     0.619500000000     0.0451265  
H238     H      0.689000000000     0.152830000000     0.715010000000     0.0430337  
H239     H      0.581930000000     0.112240000000     0.858720000000     0.043391   
H240     H      0.568630000000     0.031240000000     0.762360000000     0.0414573  
H241     H      0.606970000000     0.822380000000     0.353410000000     0.0476984  
H242     H      0.657030000000     0.776810000000     0.258330000000     0.0451112  
H243     H      0.646590000000     0.822750000000     0.169270000000     0.0431768  
H244     H      0.578870000000     0.885240000000     0.300680000000     0.0442579  
H245     H      0.535650000000     0.897840000000     0.210670000000     0.041617   
H246     H      0.617890000000     0.885520000000     0.116120000000     0.0435037  
H247     H      0.639790000000     0.856340000000     0.355880000000     0.0413071  
H248     H      0.690040000000     0.810630000000     0.260250000000     0.0434495  
H249     H      0.584780000000     0.851820000000     0.114280000000     0.041758   
H250     H      0.569000000000     0.931330000000     0.212280000000     0.0435201  
H251     H      0.642840000000     0.859040000000     0.619050000000     0.0428196  
H252     H      0.691360000000     0.811920000000     0.714320000000     0.0443614  
H253     H      0.646470000000     0.822550000000     0.804580000000     0.0428783  
H254     H      0.580570000000     0.886860000000     0.673090000000     0.0440839  
H255     H      0.568790000000     0.931370000000     0.762310000000     0.0414602  
H256     H      0.583670000000     0.850600000000     0.858560000000     0.0433545  
H257     H      0.609690000000     0.825360000000     0.619150000000     0.0452254  
H258     H      0.658400000000     0.778040000000     0.714720000000     0.0431048  
H259     H      0.616770000000     0.884340000000     0.858760000000     0.0413288  
H260     H      0.535780000000     0.897530000000     0.762360000000     0.0434846  
H261     H      0.809700000000     0.432760000000     0.950750000000     0.0436702  
H262     H      0.809670000000     0.528490000000     0.950680000000     0.0436581  
H263     H      0.736900000000     0.546270000000     0.983680000000     0.0427876  
H264     H      0.736900000000     0.414980000000     0.983780000000     0.0428273  
H265     H      0.664110000000     0.432760000000     0.950720000000     0.0436382  
H266     H      0.664600000000     0.528680000000     0.017190000000     0.0422172  
H267     H      0.809230000000     0.432620000000     0.017280000000     0.0422319  
H268     H      0.809200000000     0.528670000000     0.017210000000     0.0422177  
H269     H      0.664140000000     0.528490000000     0.950660000000     0.0436456  
H270     H      0.664560000000     0.432620000000     0.017260000000     0.0422197  
H271     H      0.309230000000     0.529120000000     0.016790000000     0.042288   
H272     H      0.309200000000     0.433060000000     0.016900000000     0.0422989  
H273     H      0.236910000000     0.415440000000     0.983400000000     0.0428698  
H274     H      0.236900000000     0.546720000000     0.983260000000     0.0428618  
H275     H      0.164570000000     0.529120000000     0.016800000000     0.0422673  
H276     H      0.164130000000     0.433190000000     0.950370000000     0.0436347  
H277     H      0.309710000000     0.528920000000     0.950260000000     0.0436368  
H278     H      0.309680000000     0.433190000000     0.950360000000     0.0436522  
H279     H      0.164600000000     0.433050000000     0.016900000000     0.0422686  
H280     H      0.164090000000     0.528910000000     0.950270000000     0.0436237  
H281     H      0.858010000000     0.382950000000     0.114310000000     0.0417303  
H282     H      0.904090000000     0.431970000000     0.210770000000     0.041553   
H283     H      0.891410000000     0.388710000000     0.300720000000     0.0441593  
H284     H      0.828880000000     0.321150000000     0.169200000000     0.0431339  
H285     H      0.782890000000     0.310690000000     0.258220000000     0.0450459  
H286     H      0.862420000000     0.327810000000     0.355840000000     0.0411892  
H287     H      0.891690000000     0.349820000000     0.116100000000     0.043455   
H288     H      0.937540000000     0.398580000000     0.212320000000     0.0434877  
H289     H      0.828490000000     0.360670000000     0.353370000000     0.0476385  
H290     H      0.816680000000     0.277650000000     0.260150000000     0.0433727  
H291     H      0.890260000000     0.351080000000     0.858770000000     0.0413843  
H292     H      0.937310000000     0.399110000000     0.762360000000     0.0414632  
H293     H      0.892880000000     0.387290000000     0.673100000000     0.0440303  
H294     H      0.828530000000     0.321330000000     0.804500000000     0.0429303  
H295     H      0.818020000000     0.276450000000     0.714240000000     0.0444604  
H296     H      0.831440000000     0.358110000000     0.619060000000     0.045202   
H297     H      0.856490000000     0.384160000000     0.858530000000     0.0433575  
H298     H      0.903430000000     0.432090000000     0.762400000000     0.0435099  
H299     H      0.865160000000     0.324990000000     0.619030000000     0.0428108  
H300     H      0.784100000000     0.309370000000     0.714590000000     0.0432033  
H301     H      0.890580000000     0.611510000000     0.114250000000     0.0437107  
H302     H      0.939650000000     0.565700000000     0.210430000000     0.0437153  
H303     H      0.896070000000     0.577760000000     0.300540000000     0.0442353  
H304     H      0.828290000000     0.640140000000     0.169100000000     0.0431237  
H305     H      0.817120000000     0.685710000000     0.258460000000     0.0451643  
H306     H      0.834720000000     0.605900000000     0.355440000000     0.041215   
H307     H      0.857430000000     0.577840000000     0.115800000000     0.0414219  
H308     H      0.906510000000     0.532010000000     0.212220000000     0.0415327  
H309     H      0.867230000000     0.640190000000     0.353580000000     0.0477585  
H310     H      0.784450000000     0.651560000000     0.259820000000     0.0432524  
H311     H      0.855510000000     0.575750000000     0.858490000000     0.0434198  
H312     H      0.903310000000     0.528740000000     0.762320000000     0.0435815  
H313     H      0.892070000000     0.573570000000     0.672970000000     0.0441208  
H314     H      0.826220000000     0.637980000000     0.804420000000     0.0429364  
H315     H      0.781730000000     0.649280000000     0.713880000000     0.044565   
H316     H      0.863680000000     0.635490000000     0.619300000000     0.0451356  
H317     H      0.888560000000     0.609530000000     0.858550000000     0.041391   
H318     H      0.936510000000     0.562390000000     0.762160000000     0.0414481  
H319     H      0.830220000000     0.602110000000     0.618610000000     0.0429105  
H320     H      0.815010000000     0.682850000000     0.714830000000     0.0430661  
H321     H      0.157270000000     0.684100000000     0.260060000000     0.0434176  
H322     H      0.111510000000     0.633850000000     0.355660000000     0.0412495  
H323     H      0.082540000000     0.573020000000     0.300430000000     0.0441555  
H324     H      0.145100000000     0.640690000000     0.169050000000     0.0431416  
H325     H      0.082290000000     0.612060000000     0.115870000000     0.0434895  
H326     H      0.069870000000     0.529850000000     0.210440000000     0.0415482  
H327     H      0.191060000000     0.651070000000     0.258120000000     0.0450502  
H328     H      0.145450000000     0.601010000000     0.353160000000     0.0475744  
H329     H      0.036430000000     0.563250000000     0.212030000000     0.0435652  
H330     H      0.115960000000     0.578910000000     0.114040000000     0.0417594  
H331     H      0.108710000000     0.636640000000     0.618830000000     0.0428014  
H332     H      0.155770000000     0.685190000000     0.714130000000     0.0444494  
H333     H      0.145190000000     0.640310000000     0.804360000000     0.0429437  
H334     H      0.080960000000     0.574340000000     0.672870000000     0.0439978  
H335     H      0.036450000000     0.562520000000     0.762090000000     0.0415123  
H336     H      0.117210000000     0.577500000000     0.858340000000     0.0433277  
H337     H      0.142450000000     0.603530000000     0.618930000000     0.0450697  
H338     H      0.189700000000     0.652280000000     0.714510000000     0.0431616  
H339     H      0.083440000000     0.610570000000     0.858530000000     0.0413818  
H340     H      0.070320000000     0.529540000000     0.762180000000     0.0434023  
H341     H      0.191070000000     0.310730000000     0.258210000000     0.0449517  
H342     H      0.145410000000     0.360670000000     0.353310000000     0.0435391  
H343     H      0.082530000000     0.388760000000     0.300560000000     0.0435384  
H344     H      0.145190000000     0.321260000000     0.169090000000     0.0431488  
H345     H      0.116080000000     0.383110000000     0.114200000000     0.04175    
H346     H      0.036470000000     0.398630000000     0.212130000000     0.0435639  
H347     H      0.157270000000     0.277720000000     0.260000000000     0.043693   
H348     H      0.111450000000     0.327840000000     0.355660000000     0.0445844  
H349     H      0.069900000000     0.432040000000     0.210620000000     0.0414526  
H350     H      0.082440000000     0.349940000000     0.115900000000     0.0435114  
H351     H      0.155690000000     0.276370000000     0.714280000000     0.0444714  
H352     H      0.108430000000     0.324700000000     0.619040000000     0.0420941  
H353     H      0.080750000000     0.387130000000     0.672970000000     0.043117   
H354     H      0.145280000000     0.321410000000     0.804430000000     0.0429567  
H355     H      0.083640000000     0.351250000000     0.858760000000     0.0414389  
H356     H      0.070320000000     0.432090000000     0.762160000000     0.0433027  
H357     H      0.189600000000     0.309300000000     0.714480000000     0.0431     
H358     H      0.142110000000     0.357870000000     0.618860000000     0.0405611  
H359     H      0.036440000000     0.399120000000     0.762310000000     0.0414594  
H360     H      0.117390000000     0.384330000000     0.858300000000     0.0433164  
H361     H      0.664570000000     0.029140000000     0.956840000000     0.0413888  
H362     H      0.664600000000     0.933070000000     0.956890000000     0.0414311  
H363     H      0.736890000000     0.915490000000     0.990410000000     0.0428528  
H364     H      0.736890000000     0.046770000000     0.990340000000     0.0427204  
H365     H      0.809210000000     0.029140000000     0.956810000000     0.0413691  
H366     H      0.809670000000     0.933260000000     0.023400000000     0.0444103  
H367     H      0.664080000000     0.028990000000     0.023380000000     0.0443581  
H368     H      0.664110000000     0.933270000000     0.023430000000     0.0443973  
H369     H      0.809170000000     0.933070000000     0.956860000000     0.0414383  
H370     H      0.809710000000     0.028980000000     0.023350000000     0.0443532  
H371     H      0.309230000000     0.932680000000     0.956360000000     0.0414134  
H372     H      0.309190000000     0.028740000000     0.956490000000     0.0413678  
H373     H      0.236890000000     0.046320000000     0.990030000000     0.0426996  
H374     H      0.236900000000     0.915030000000     0.989840000000     0.042866   
H375     H      0.164560000000     0.932680000000     0.956350000000     0.0414128  
H376     H      0.164110000000     0.028520000000     0.023020000000     0.0444376  
H377     H      0.309700000000     0.932800000000     0.022900000000     0.0444804  
H378     H      0.309670000000     0.028530000000     0.023030000000     0.0444364  
H379     H      0.164590000000     0.028730000000     0.956490000000     0.0413604  
H380     H      0.164090000000     0.932790000000     0.022890000000     0.0444671  
H381     H      0.938610000000     0.658040000000     0.954930000000     0.0415825  
H382     H      0.034710000000     0.658070000000     0.954930000000     0.0415934  
H383     H      0.052290000000     0.730870000000     0.986620000000     0.0428593  
H384     H      0.920990000000     0.730870000000     0.986640000000     0.0427915  
H385     H      0.938810000000     0.803170000000     0.951820000000     0.043432   
H386     H      0.034720000000     0.803650000000     0.018340000000     0.0423777  
H387     H      0.938810000000     0.658590000000     0.021460000000     0.0442501  
H388     H      0.034510000000     0.658630000000     0.021460000000     0.0442484  
H389     H      0.034490000000     0.803130000000     0.951800000000     0.0434706  
H390     H      0.938600000000     0.803680000000     0.018360000000     0.0423421  
H391     H      0.035160000000     0.158050000000     0.018690000000     0.0422949  
H392     H      0.939050000000     0.158080000000     0.018800000000     0.0422993  
H393     H      0.921450000000     0.230870000000     0.987120000000     0.0427486  
H394     H      0.052750000000     0.230870000000     0.986950000000     0.0428088  
H395     H      0.034960000000     0.303150000000     0.021800000000     0.0441831  
H396     H      0.939010000000     0.303660000000     0.955390000000     0.0415746  
H397     H      0.034910000000     0.158590000000     0.952150000000     0.0434655  
H398     H      0.939220000000     0.158620000000     0.952270000000     0.0434682  
H399     H      0.939270000000     0.303120000000     0.021930000000     0.0441496  
H400     H      0.035130000000     0.303680000000     0.955270000000     0.0416066  
H401     H      0.938160000000     0.897780000000     0.210610000000     0.0413118  
H402     H      0.889010000000     0.851790000000     0.114230000000     0.041766   
H403     H      0.827220000000     0.822710000000     0.169230000000     0.0432327  
H404     H      0.894970000000     0.885160000000     0.300640000000     0.0431601  
H405     H      0.866860000000     0.822280000000     0.353370000000     0.0433285  
H406     H      0.783780000000     0.810580000000     0.260200000000     0.0437246  
H407     H      0.904810000000     0.931260000000     0.212260000000     0.0433042  
H408     H      0.855900000000     0.885490000000     0.116100000000     0.0435374  
H409     H      0.816770000000     0.776750000000     0.258290000000     0.0449653  
H410     H      0.834060000000     0.856270000000     0.355840000000     0.0443781  
H411     H      0.782310000000     0.812020000000     0.714360000000     0.0443993  
H412     H      0.830690000000     0.859220000000     0.619090000000     0.0417574  
H413     H      0.893040000000     0.887020000000     0.673050000000     0.0426097  
H414     H      0.827270000000     0.822600000000     0.804570000000     0.0429303  
H415     H      0.857010000000     0.884350000000     0.858780000000     0.0413408  
H416     H      0.937920000000     0.897610000000     0.762270000000     0.0430623  
H417     H      0.815280000000     0.778150000000     0.714690000000     0.0430694  
H418     H      0.863880000000     0.825570000000     0.619060000000     0.04037    
H419     H      0.904920000000     0.931450000000     0.762320000000     0.0411028  
H420     H      0.890100000000     0.850610000000     0.858470000000     0.0433355  
H421     H      0.861890000000     0.132980000000     0.355640000000     0.0443388  
H422     H      0.816210000000     0.183200000000     0.259960000000     0.0435986  
H423     H      0.827690000000     0.139380000000     0.169280000000     0.0431916  
H424     H      0.890130000000     0.071680000000     0.300750000000     0.043307   
H425     H      0.935940000000     0.061340000000     0.212430000000     0.0414155  
H426     H      0.856410000000     0.077140000000     0.114450000000     0.0437472  
H427     H      0.827620000000     0.100460000000     0.353770000000     0.0435271  
H428     H      0.782090000000     0.150500000000     0.258610000000     0.0450849  
H429     H      0.890040000000     0.110340000000     0.116020000000     0.0414495  
H430     H      0.902310000000     0.028140000000     0.210640000000     0.0435202  
H431     H      0.818460000000     0.186200000000     0.714120000000     0.0445636  
H432     H      0.865700000000     0.137790000000     0.618870000000     0.0420595  
H433     H      0.894160000000     0.075850000000     0.673150000000     0.0428308  
H434     H      0.829690000000     0.141610000000     0.804620000000     0.0429433  
H435     H      0.891870000000     0.112240000000     0.858730000000     0.0434336  
H436     H      0.905220000000     0.031310000000     0.762290000000     0.0410787  
H437     H      0.784880000000     0.152930000000     0.714990000000     0.0429545  
H438     H      0.832320000000     0.104330000000     0.619410000000     0.0403344  
H439     H      0.938910000000     0.064480000000     0.762520000000     0.0433059  
H440     H      0.858070000000     0.079210000000     0.858700000000     0.0413343  
H441     H      0.146120000000     0.100480000000     0.353750000000     0.0476308  
H442     H      0.191770000000     0.150480000000     0.258640000000     0.0452413  
H443     H      0.146280000000     0.139310000000     0.169230000000     0.0431844  
H444     H      0.083670000000     0.071710000000     0.300640000000     0.0439607  
H445     H      0.071590000000     0.028110000000     0.210550000000     0.0435643  
H446     H      0.084000000000     0.110240000000     0.115840000000     0.041455   
H447     H      0.111870000000     0.133020000000     0.355530000000     0.041041   
H448     H      0.157650000000     0.183180000000     0.259910000000     0.043344   
H449     H      0.117610000000     0.077020000000     0.114420000000     0.0437813  
H450     H      0.037970000000     0.061330000000     0.212240000000     0.0414618  
H451     H      0.108280000000     0.137500000000     0.618770000000     0.0427237  
H452     H      0.155460000000     0.185960000000     0.714060000000     0.0445427  
H453     H      0.144230000000     0.141380000000     0.804550000000     0.0428945  
H454     H      0.079810000000     0.075600000000     0.673050000000     0.0437211  
H455     H      0.035010000000     0.064260000000     0.762390000000     0.0434256  
H456     H      0.115830000000     0.078970000000     0.858610000000     0.041295   
H457     H      0.141690000000     0.104070000000     0.619380000000     0.0448532  
H458     H      0.189060000000     0.152710000000     0.714930000000     0.0429814  
H459     H      0.082050000000     0.112020000000     0.858630000000     0.0434133  
H460     H      0.068680000000     0.031080000000     0.762200000000     0.0412192  
H461     H      0.111840000000     0.828660000000     0.355430000000     0.044269   
H462     H      0.157610000000     0.778430000000     0.259850000000     0.0436378  
H463     H      0.146210000000     0.822220000000     0.169130000000     0.0432319  
H464     H      0.083660000000     0.889950000000     0.300470000000     0.0432675  
H465     H      0.037950000000     0.900270000000     0.212100000000     0.0414303  
H466     H      0.117530000000     0.884460000000     0.114220000000     0.0437417  
H467     H      0.146110000000     0.861190000000     0.353610000000     0.0435295  
H468     H      0.191730000000     0.811130000000     0.258550000000     0.0451322  
H469     H      0.083900000000     0.851260000000     0.115750000000     0.0414905  
H470     H      0.071580000000     0.933470000000     0.210340000000     0.0434784  
H471     H      0.155230000000     0.775550000000     0.714050000000     0.0445019  
H472     H      0.107990000000     0.823870000000     0.618730000000     0.0419264  
H473     H      0.079510000000     0.885860000000     0.672910000000     0.0427194  
H474     H      0.144000000000     0.820200000000     0.804480000000     0.0429034  
H475     H      0.081820000000     0.849600000000     0.858550000000     0.0434217  
H476     H      0.068450000000     0.930470000000     0.762020000000     0.0410369  
H477     H      0.188810000000     0.808820000000     0.714880000000     0.0429147  
H478     H      0.141350000000     0.857340000000     0.619220000000     0.0403185  
H479     H      0.034760000000     0.897310000000     0.762290000000     0.0432222  
H480     H      0.115620000000     0.882630000000     0.858460000000     0.041307   
N1       N      0.405940000000     0.399150000000     0.147150000000    -0.165796   
N2       N      0.314310000000     0.311080000000     0.323080000000    -0.162714   
N3       N      0.316420000000     0.309140000000     0.650410000000    -0.163031   
N4       N      0.405010000000     0.400080000000     0.826480000000    -0.165874   
N5       N      0.406020000000     0.562840000000     0.146990000000    -0.165789   
N6       N      0.314350000000     0.650780000000     0.322980000000    -0.162214   
N7       N      0.405250000000     0.561810000000     0.826330000000    -0.165873   
N8       N      0.316680000000     0.652870000000     0.650350000000    -0.163531   
N9       N      0.656200000000     0.653960000000     0.323050000000    -0.162211   
N10      N      0.567150000000     0.563350000000     0.147070000000    -0.165791   
N11      N      0.569440000000     0.560960000000     0.826430000000    -0.165864   
N12      N      0.659320000000     0.650670000000     0.650390000000    -0.163593   
N13      N      0.659490000000     0.311090000000     0.323100000000    -0.162206   
N14      N      0.567670000000     0.399090000000     0.147280000000    -0.165775   
N15      N      0.568660000000     0.399880000000     0.826570000000    -0.165871   
N16      N      0.657220000000     0.308940000000     0.650460000000    -0.163535   
N17      N      0.487130000000     0.819630000000     0.985120000000    -0.167394   
N18      N      0.487140000000     0.642130000000     0.988190000000    -0.167381   
N19      N      0.486710000000     0.319630000000     0.988590000000    -0.167432   
N20      N      0.486710000000     0.142130000000     0.985480000000    -0.167427   
N21      N      0.404490000000     0.900470000000     0.147050000000    -0.165815   
N22      N      0.313830000000     0.811650000000     0.323160000000    -0.162659   
N23      N      0.316800000000     0.808690000000     0.650490000000    -0.163068   
N24      N      0.406670000000     0.898520000000     0.826430000000    -0.165891   
N25      N      0.404430000000     0.061090000000     0.147180000000    -0.165767   
N26      N      0.313880000000     0.150130000000     0.323190000000    -0.162195   
N27      N      0.317000000000     0.153310000000     0.650540000000    -0.163541   
N28      N      0.406570000000     0.063210000000     0.826520000000    -0.165834   
N29      N      0.569100000000     0.061190000000     0.147340000000    -0.165773   
N30      N      0.659830000000     0.150150000000     0.323290000000    -0.162662   
N31      N      0.567200000000     0.063350000000     0.826670000000    -0.165824   
N32      N      0.656940000000     0.153170000000     0.650600000000    -0.162994   
N33      N      0.568630000000     0.899960000000     0.147260000000    -0.165759   
N34      N      0.656630000000     0.808330000000     0.323230000000    -0.162675   
N35      N      0.567940000000     0.899200000000     0.826580000000    -0.165899   
N36      N      0.658720000000     0.810360000000     0.650560000000    -0.163037   
N37      N      0.648140000000     0.480640000000     0.984380000000    -0.167393   
N38      N      0.825660000000     0.480640000000     0.984400000000    -0.167375   
N39      N      0.148130000000     0.481060000000     0.984030000000    -0.167443   
N40      N      0.325670000000     0.481070000000     0.984020000000    -0.167335   
N41      N      0.814390000000     0.311040000000     0.323140000000    -0.162636   
N42      N      0.906170000000     0.399050000000     0.147300000000    -0.165801   
N43      N      0.816470000000     0.309080000000     0.650470000000    -0.163022   
N44      N      0.905100000000     0.399910000000     0.826600000000    -0.165829   
N45      N      0.817570000000     0.653900000000     0.323090000000    -0.162665   
N46      N      0.906640000000     0.563310000000     0.147110000000    -0.165787   
N47      N      0.814650000000     0.650800000000     0.650400000000    -0.163051   
N48      N      0.904400000000     0.560990000000     0.826460000000    -0.165855   
N49      N      0.067800000000     0.562810000000     0.147020000000    -0.165728   
N50      N      0.159530000000     0.650670000000     0.323020000000    -0.162669   
N51      N      0.068620000000     0.561730000000     0.826360000000    -0.165855   
N52      N      0.157380000000     0.652570000000     0.650350000000    -0.163022   
N53      N      0.067870000000     0.399140000000     0.147140000000    -0.165807   
N54      N      0.159490000000     0.311050000000     0.323050000000    -0.162162   
N55      N      0.068730000000     0.400020000000     0.826460000000    -0.165823   
N56      N      0.157180000000     0.308910000000     0.650420000000    -0.163489   
N57      N      0.825650000000     0.981110000000     0.989640000000    -0.167454   
N58      N      0.648130000000     0.981110000000     0.989680000000    -0.167473   
N59      N      0.148120000000     0.980690000000     0.989260000000    -0.167463   
N60      N      0.325660000000     0.980690000000     0.989260000000    -0.167459   
N61      N      0.986660000000     0.819620000000     0.985090000000    -0.167359   
N62      N      0.986670000000     0.642120000000     0.988210000000    -0.167395   
N63      N      0.987090000000     0.319620000000     0.988590000000    -0.167475   
N64      N      0.987080000000     0.142120000000     0.985470000000    -0.167478   
N65      N      0.817190000000     0.808280000000     0.323180000000    -0.162163   
N66      N      0.905180000000     0.899920000000     0.147220000000    -0.16578    
N67      N      0.905810000000     0.899230000000     0.826540000000    -0.165913   
N68      N      0.814900000000     0.810490000000     0.650550000000    -0.163585   
N69      N      0.904640000000     0.061150000000     0.147320000000    -0.165785   
N70      N      0.813890000000     0.150100000000     0.323250000000    -0.162218   
N71      N      0.906630000000     0.063370000000     0.826640000000    -0.165908   
N72      N      0.816970000000     0.153320000000     0.650600000000    -0.16353    
N73      N      0.069330000000     0.061090000000     0.147190000000    -0.16579    
N74      N      0.159910000000     0.150100000000     0.323220000000    -0.162642   
N75      N      0.067270000000     0.063160000000     0.826530000000    -0.165845   
N76      N      0.156980000000     0.153080000000     0.650540000000    -0.163008   
N77      N      0.069280000000     0.900450000000     0.147030000000    -0.165817   
N78      N      0.159880000000     0.811540000000     0.323130000000    -0.162264   
N79      N      0.067060000000     0.898450000000     0.826400000000    -0.165882   
N80      N      0.156730000000     0.808390000000     0.650480000000    -0.16352    
O1       O      0.056570000000     0.910000000000     0.906980000000    -0.376477   
O2       O      0.917160000000     0.051810000000     0.907220000000    -0.376203   
O3       O      0.946550000000     0.940100000000     0.847090000000    -0.375293   
O4       O      0.026970000000     0.021860000000     0.847080000000    -0.375109   
O5       O      0.056730000000     0.051630000000     0.907110000000    -0.376315   
O6       O      0.916680000000     0.910440000000     0.907120000000    -0.376327   
O7       O      0.946850000000     0.022000000000     0.847160000000    -0.375187   
O8       O      0.026830000000     0.939820000000     0.846990000000    -0.375293   
O9       O      0.986930000000     0.030800000000     0.936870000000    -0.50831    
O10      O      0.986790000000     0.930940000000     0.936780000000    -0.508342   
O11      O      0.936740000000     0.980970000000     0.936690000000    -0.65241    
O12      O      0.037010000000     0.980830000000     0.936580000000    -0.652298   
O13      O      0.916350000000     0.050840000000     0.066740000000    -0.375841   
O14      O      0.057540000000     0.910800000000     0.066450000000    -0.375803   
O15      O      0.876740000000     0.951110000000     0.988260000000    -0.37973    
O16      O      0.016980000000     0.090970000000     0.986050000000    -0.379661   
O17      O      0.097030000000     0.010670000000     0.988010000000    -0.379761   
O18      O      0.956760000000     0.870790000000     0.985820000000    -0.379759   
O19      O      0.946260000000     0.940430000000     0.126660000000    -0.375496   
O20      O      0.028090000000     0.020740000000     0.126630000000    -0.375131   
O21      O      0.916160000000     0.911000000000     0.066630000000    -0.375651   
O22      O      0.057650000000     0.050710000000     0.066610000000    -0.375828   
O23      O      0.876810000000     0.011000000000     0.988210000000    -0.379717   
O24      O      0.016660000000     0.870710000000     0.985830000000    -0.379583   
O25      O      0.096970000000     0.950780000000     0.987920000000    -0.379779   
O26      O      0.957090000000     0.091030000000     0.986120000000    -0.379914   
O27      O      0.945820000000     0.020730000000     0.126720000000    -0.375198   
O28      O      0.028110000000     0.940860000000     0.126510000000    -0.374993   
O29      O      0.036820000000     0.980780000000     0.036790000000    -0.507702   
O30      O      0.937000000000     0.980920000000     0.036930000000    -0.507688   
O31      O      0.986850000000     0.930720000000     0.037020000000    -0.652223   
O32      O      0.986970000000     0.030970000000     0.037160000000    -0.652056   
O33      O      0.017000000000     0.370770000000     0.987830000000    -0.379599   
O34      O      0.876750000000     0.510630000000     0.985680000000    -0.379756   
O35      O      0.917140000000     0.410130000000     0.066720000000    -0.375949   
O36      O      0.916390000000     0.410710000000     0.907190000000    -0.376165   
O37      O      0.946000000000     0.440600000000     0.847140000000    -0.375351   
O38      O      0.946680000000     0.440150000000     0.126710000000    -0.375439   
O39      O      0.876820000000     0.450740000000     0.985690000000    -0.379805   
O40      O      0.957110000000     0.370710000000     0.987910000000    -0.379932   
O41      O      0.936970000000     0.480770000000     0.936840000000    -0.508109   
O42      O      0.986990000000     0.430940000000     0.036940000000    -0.507516   
O43      O      0.936800000000     0.480830000000     0.037090000000    -0.652059   
O44      O      0.986940000000     0.430740000000     0.936660000000    -0.652985   
O45      O      0.956770000000     0.590960000000     0.987590000000    -0.379828   
O46      O      0.097040000000     0.451070000000     0.985450000000    -0.379845   
O47      O      0.947100000000     0.522160000000     0.126560000000    -0.375014   
O48      O      0.945770000000     0.520780000000     0.847040000000    -0.375342   
O49      O      0.027800000000     0.440690000000     0.847040000000    -0.375212   
O50      O      0.027280000000     0.440150000000     0.126590000000    -0.375149   
O51      O      0.056780000000     0.551710000000     0.066430000000    -0.375815   
O52      O      0.057350000000     0.550980000000     0.906950000000    -0.376286   
O53      O      0.027280000000     0.521730000000     0.126500000000    -0.375085   
O54      O      0.027720000000     0.521030000000     0.846970000000    -0.375258   
O55      O      0.916920000000     0.551510000000     0.066540000000    -0.376031   
O56      O      0.056910000000     0.410260000000     0.066560000000    -0.375932   
O57      O      0.057510000000     0.410850000000     0.907060000000    -0.376122   
O58      O      0.915960000000     0.550510000000     0.907050000000    -0.37613    
O59      O      0.016660000000     0.591030000000     0.987630000000    -0.379688   
O60      O      0.096980000000     0.510960000000     0.985390000000    -0.379699   
O61      O      0.036830000000     0.480910000000     0.936750000000    -0.508052   
O62      O      0.986850000000     0.530830000000     0.036800000000    -0.507708   
O63      O      0.037050000000     0.480960000000     0.036950000000    -0.652045   
O64      O      0.986810000000     0.530970000000     0.936550000000    -0.653051   
O65      O      0.376810000000     0.950790000000     0.987940000000    -0.379774   
O66      O      0.516690000000     0.091040000000     0.986130000000    -0.379928   
O67      O      0.416120000000     0.050720000000     0.066600000000    -0.375755   
O68      O      0.417070000000     0.051650000000     0.907100000000    -0.376292   
O69      O      0.446850000000     0.021890000000     0.847080000000    -0.375146   
O70      O      0.445680000000     0.020750000000     0.126630000000    -0.375203   
O71      O      0.456800000000     0.090980000000     0.986050000000    -0.379785   
O72      O      0.376750000000     0.010680000000     0.988010000000    -0.379775   
O73      O      0.486860000000     0.030810000000     0.936880000000    -0.508282   
O74      O      0.436970000000     0.980790000000     0.036800000000    -0.507787   
O75      O      0.486800000000     0.030980000000     0.037170000000    -0.651984   
O76      O      0.436780000000     0.980840000000     0.936590000000    -0.652405   
O77      O      0.596980000000     0.011010000000     0.988240000000    -0.379735   
O78      O      0.457130000000     0.870730000000     0.985850000000    -0.379772   
O79      O      0.527940000000     0.020760000000     0.126740000000    -0.375254   
O80      O      0.526970000000     0.021980000000     0.847190000000    -0.37514    
O81      O      0.446930000000     0.939860000000     0.847020000000    -0.375342   
O82      O      0.445660000000     0.940880000000     0.126530000000    -0.375096   
O83      O      0.557620000000     0.911020000000     0.066670000000    -0.375752   
O84      O      0.557100000000     0.910440000000     0.907160000000    -0.376415   
O85      O      0.527520000000     0.940450000000     0.126680000000    -0.375464   
O86      O      0.527220000000     0.940080000000     0.847130000000    -0.375306   
O87      O      0.557420000000     0.050860000000     0.066760000000    -0.37587    
O88      O      0.416240000000     0.910810000000     0.066470000000    -0.37573    
O89      O      0.417210000000     0.910010000000     0.907010000000    -0.376419   
O90      O      0.556640000000     0.051810000000     0.907250000000    -0.376276   
O91      O      0.597050000000     0.951120000000     0.988290000000    -0.379817   
O92      O      0.517020000000     0.870790000000     0.985860000000    -0.379699   
O93      O      0.487000000000     0.930950000000     0.936800000000    -0.508176   
O94      O      0.536780000000     0.980930000000     0.036960000000    -0.507731   
O95      O      0.486930000000     0.930730000000     0.037050000000    -0.652105   
O96      O      0.537050000000     0.980980000000     0.936720000000    -0.652628   
O97      O      0.376820000000     0.510980000000     0.985370000000    -0.379656   
O98      O      0.516700000000     0.370720000000     0.987900000000    -0.37991    
O99      O      0.416280000000     0.410870000000     0.907070000000    -0.376238   
O100     O      0.416890000000     0.410270000000     0.066560000000    -0.375808   
O101     O      0.446540000000     0.440160000000     0.126590000000    -0.375208   
O102     O      0.445960000000     0.440720000000     0.847040000000    -0.375458   
O103     O      0.456810000000     0.370780000000     0.987830000000    -0.379811   
O104     O      0.376760000000     0.451080000000     0.985450000000    -0.37987    
O105     O      0.486810000000     0.430960000000     0.036930000000    -0.507548   
O106     O      0.436980000000     0.480920000000     0.936740000000    -0.508143   
O107     O      0.486850000000     0.430750000000     0.936650000000    -0.652878   
O108     O      0.436760000000     0.480970000000     0.036940000000    -0.651989   
O109     O      0.596980000000     0.450750000000     0.985660000000    -0.379832   
O110     O      0.457140000000     0.591040000000     0.987600000000    -0.379632   
O111     O      0.527770000000     0.440590000000     0.847110000000    -0.375297   
O112     O      0.527140000000     0.440180000000     0.126690000000    -0.375397   
O113     O      0.446530000000     0.521750000000     0.126480000000    -0.375249   
O114     O      0.446120000000     0.521080000000     0.846940000000    -0.375488   
O115     O      0.557850000000     0.550510000000     0.907020000000    -0.376068   
O116     O      0.556890000000     0.551530000000     0.066510000000    -0.376006   
O117     O      0.528050000000     0.520760000000     0.847010000000    -0.375407   
O118     O      0.526700000000     0.522180000000     0.126530000000    -0.375054   
O119     O      0.557400000000     0.410710000000     0.907160000000    -0.376032   
O120     O      0.416460000000     0.551000000000     0.906920000000    -0.37618    
O121     O      0.417020000000     0.551720000000     0.066410000000    -0.375847   
O122     O      0.556680000000     0.410150000000     0.066700000000    -0.375886   
O123     O      0.597060000000     0.510640000000     0.985660000000    -0.379827   
O124     O      0.517040000000     0.590970000000     0.987560000000    -0.379815   
O125     O      0.486950000000     0.530840000000     0.036770000000    -0.507586   
O126     O      0.536830000000     0.480770000000     0.936820000000    -0.508094   
O127     O      0.487000000000     0.530980000000     0.936520000000    -0.652891   
O128     O      0.537000000000     0.480840000000     0.037070000000    -0.652037   
O129     O      0.167960000000     0.299810000000     0.569390000000    -0.366376   
O130     O      0.198010000000     0.268520000000     0.627590000000    -0.351862   
O131     O      0.170150000000     0.159710000000     0.404280000000    -0.360117   
O132     O      0.198810000000     0.192330000000     0.346130000000    -0.351059   
O133     O      0.167910000000     0.161960000000     0.569510000000    -0.362311   
O134     O      0.197890000000     0.193390000000     0.627640000000    -0.351545   
O135     O      0.169970000000     0.301710000000     0.404100000000    -0.355805   
O136     O      0.198750000000     0.269150000000     0.346000000000    -0.350964   
O137     O      0.123490000000     0.275400000000     0.484080000000    -0.341584   
O138     O      0.178480000000     0.345310000000     0.488290000000    -0.512674   
O139     O      0.123980000000     0.187400000000     0.485220000000    -0.513261   
O140     O      0.177480000000     0.116090000000     0.488380000000    -0.327898   
O141     O      0.181100000000     0.231010000000     0.536330000000    -0.470197   
O142     O      0.181300000000     0.230950000000     0.437660000000    -0.611098   
O143     O      0.303830000000     0.301740000000     0.404130000000    -0.360212   
O144     O      0.275120000000     0.269120000000     0.346040000000    -0.351147   
O145     O      0.305990000000     0.162150000000     0.569520000000    -0.366446   
O146     O      0.275910000000     0.193430000000     0.627680000000    -0.351999   
O147     O      0.303640000000     0.159740000000     0.404240000000    -0.355663   
O148     O      0.274910000000     0.192300000000     0.346090000000    -0.350889   
O149     O      0.305730000000     0.299990000000     0.569370000000    -0.36239    
O150     O      0.275780000000     0.268570000000     0.627560000000    -0.351404   
O151     O      0.349820000000     0.274260000000     0.485390000000    -0.51315    
O152     O      0.296330000000     0.345610000000     0.487960000000    -0.327755   
O153     O      0.350300000000     0.186260000000     0.483920000000    -0.341718   
O154     O      0.295300000000     0.116390000000     0.488710000000    -0.512797   
O155     O      0.292500000000     0.230690000000     0.437660000000    -0.611047   
O156     O      0.292700000000     0.230740000000     0.536330000000    -0.470108   
O157     O      0.237040000000     0.287660000000     0.433820000000    -0.475641   
O158     O      0.236770000000     0.174330000000     0.539310000000    -0.623985   
O159     O      0.237020000000     0.287410000000     0.539160000000    -0.623994   
O160     O      0.236750000000     0.174010000000     0.433950000000    -0.475589   
O161     O      0.167760000000     0.799560000000     0.569470000000    -0.366478   
O162     O      0.197850000000     0.768290000000     0.627640000000    -0.351977   
O163     O      0.170000000000     0.659980000000     0.404080000000    -0.360094   
O164     O      0.198700000000     0.692630000000     0.346000000000    -0.351201   
O165     O      0.168100000000     0.661710000000     0.569320000000    -0.36238    
O166     O      0.198020000000     0.693150000000     0.627510000000    -0.351442   
O167     O      0.170120000000     0.801960000000     0.404190000000    -0.3558     
O168     O      0.198860000000     0.769410000000     0.346050000000    -0.350873   
O169     O      0.123470000000     0.775430000000     0.483880000000    -0.341816   
O170     O      0.178430000000     0.845320000000     0.488670000000    -0.51267    
O171     O      0.124000000000     0.687400000000     0.485340000000    -0.513092   
O172     O      0.177540000000     0.616100000000     0.487910000000    -0.327761   
O173     O      0.181100000000     0.730970000000     0.536290000000    -0.470057   
O174     O      0.181300000000     0.731020000000     0.437630000000    -0.610909   
O175     O      0.303600000000     0.802070000000     0.404230000000    -0.360118   
O176     O      0.274950000000     0.769420000000     0.346100000000    -0.351099   
O177     O      0.305880000000     0.661970000000     0.569330000000    -0.366388   
O178     O      0.275820000000     0.693240000000     0.627540000000    -0.351859   
O179     O      0.303860000000     0.660080000000     0.404040000000    -0.355818   
O180     O      0.275070000000     0.692640000000     0.345950000000    -0.350965   
O181     O      0.305850000000     0.799820000000     0.569460000000    -0.3623     
O182     O      0.275900000000     0.768380000000     0.627610000000    -0.351452   
O183     O      0.349790000000     0.774420000000     0.485170000000    -0.513196   
O184     O      0.296240000000     0.845690000000     0.488350000000    -0.327786   
O185     O      0.350330000000     0.686400000000     0.484040000000    -0.341725   
O186     O      0.295380000000     0.616460000000     0.488230000000    -0.513017   
O187     O      0.292500000000     0.730830000000     0.437620000000    -0.611196   
O188     O      0.292690000000     0.730760000000     0.536290000000    -0.470169   
O189     O      0.237010000000     0.787740000000     0.433910000000    -0.475667   
O190     O      0.236800000000     0.674330000000     0.539120000000    -0.624008   
O191     O      0.236990000000     0.787410000000     0.539270000000    -0.623956   
O192     O      0.236790000000     0.674080000000     0.433770000000    -0.475682   
O193     O      0.805950000000     0.162130000000     0.569570000000    -0.366383   
O194     O      0.775890000000     0.193440000000     0.627720000000    -0.352015   
O195     O      0.803880000000     0.301710000000     0.404180000000    -0.360142   
O196     O      0.775160000000     0.269100000000     0.346070000000    -0.351028   
O197     O      0.805770000000     0.299960000000     0.569420000000    -0.362296   
O198     O      0.775810000000     0.268550000000     0.627590000000    -0.351565   
O199     O      0.803610000000     0.159710000000     0.404290000000    -0.355742   
O200     O      0.774920000000     0.192280000000     0.346120000000    -0.350751   
O201     O      0.850270000000     0.186180000000     0.483960000000    -0.341694   
O202     O      0.795210000000     0.116360000000     0.488760000000    -0.512901   
O203     O      0.849840000000     0.274200000000     0.485430000000    -0.51304    
O204     O      0.796400000000     0.345580000000     0.488000000000    -0.327621   
O205     O      0.792700000000     0.230720000000     0.536370000000    -0.470118   
O206     O      0.792490000000     0.230670000000     0.437700000000    -0.611002   
O207     O      0.670100000000     0.159750000000     0.404330000000    -0.360174   
O208     O      0.698770000000     0.192350000000     0.346170000000    -0.351058   
O209     O      0.668000000000     0.299850000000     0.569430000000    -0.366388   
O210     O      0.698030000000     0.268540000000     0.627620000000    -0.351907   
O211     O      0.670000000000     0.301760000000     0.404140000000    -0.35578    
O212     O      0.698750000000     0.269180000000     0.346030000000    -0.35086    
O213     O      0.667880000000     0.162020000000     0.569560000000    -0.36227    
O214     O      0.697870000000     0.193440000000     0.627690000000    -0.35154    
O215     O      0.623960000000     0.187480000000     0.485270000000    -0.51301    
O216     O      0.677410000000     0.116140000000     0.488430000000    -0.327688   
O217     O      0.623520000000     0.275500000000     0.484120000000    -0.341613   
O218     O      0.678570000000     0.345360000000     0.488320000000    -0.512905   
O219     O      0.681300000000     0.230990000000     0.437700000000    -0.61113    
O220     O      0.681100000000     0.231060000000     0.536370000000    -0.470123   
O221     O      0.736720000000     0.174020000000     0.433990000000    -0.475655   
O222     O      0.737060000000     0.287430000000     0.539190000000    -0.623943   
O223     O      0.736740000000     0.174340000000     0.539350000000    -0.623981   
O224     O      0.737080000000     0.287670000000     0.433850000000    -0.475612   
O225     O      0.805840000000     0.799710000000     0.569520000000    -0.366554   
O226     O      0.774520000000     0.769670000000     0.627680000000    -0.352005   
O227     O      0.665970000000     0.797830000000     0.404270000000    -0.360043   
O228     O      0.698580000000     0.769140000000     0.346130000000    -0.351052   
O229     O      0.667820000000     0.799660000000     0.569520000000    -0.362404   
O230     O      0.699260000000     0.769690000000     0.627650000000    -0.351468   
O231     O      0.807840000000     0.797770000000     0.404230000000    -0.355725   
O232     O      0.775260000000     0.769050000000     0.346080000000    -0.350781   
O233     O      0.781540000000     0.844230000000     0.484230000000    -0.341603   
O234     O      0.851400000000     0.789180000000     0.488480000000    -0.512642   
O235     O      0.693520000000     0.843770000000     0.485550000000    -0.513217   
O236     O      0.622150000000     0.790310000000     0.488160000000    -0.327619   
O237     O      0.737050000000     0.786620000000     0.536400000000    -0.470171   
O238     O      0.737050000000     0.786460000000     0.437740000000    -0.611232   
O239     O      0.807990000000     0.664130000000     0.404150000000    -0.360091   
O240     O      0.775340000000     0.692810000000     0.346040000000    -0.351026   
O241     O      0.668150000000     0.661720000000     0.569380000000    -0.366405   
O242     O      0.699420000000     0.691770000000     0.627580000000    -0.351943   
O243     O      0.665780000000     0.664190000000     0.404100000000    -0.355849   
O244     O      0.698390000000     0.692900000000     0.346000000000    -0.350982   
O245     O      0.805780000000     0.661780000000     0.569380000000    -0.362284   
O246     O      0.774400000000     0.691750000000     0.627560000000    -0.351546   
O247     O      0.780300000000     0.617920000000     0.485030000000    -0.513071   
O248     O      0.851640000000     0.671380000000     0.488230000000    -0.327664   
O249     O      0.692250000000     0.617470000000     0.483720000000    -0.341734   
O250     O      0.622400000000     0.672490000000     0.488550000000    -0.512549   
O251     O      0.736750000000     0.675270000000     0.437590000000    -0.611091   
O252     O      0.736740000000     0.675030000000     0.536260000000    -0.47008    
O253     O      0.793730000000     0.730710000000     0.433880000000    -0.475681   
O254     O      0.680350000000     0.730960000000     0.539240000000    -0.623946   
O255     O      0.793450000000     0.730660000000     0.539240000000    -0.6242     
O256     O      0.680070000000     0.731040000000     0.433890000000    -0.475658   
Zr1      Zr     0.986850000000     0.980890000000     0.887030000000     1.42207    
Zr2      Zr     0.937260000000     0.030650000000     0.986950000000     1.43108    
Zr3      Zr     0.036520000000     0.931090000000     0.986750000000     1.43093    
Zr4      Zr     0.937110000000     0.931240000000     0.986870000000     1.43075    
Zr5      Zr     0.036640000000     0.030520000000     0.986860000000     1.43112    
Zr6      Zr     0.986950000000     0.980810000000     0.086680000000     1.42283    
Zr7      Zr     0.937270000000     0.431090000000     0.986920000000     1.43084    
Zr8      Zr     0.937130000000     0.530490000000     0.986810000000     1.43089    
Zr9      Zr     0.036660000000     0.431210000000     0.986810000000     1.43087    
Zr10     Zr     0.986960000000     0.480930000000     0.086650000000     1.42249    
Zr11     Zr     0.986880000000     0.480830000000     0.887000000000     1.4231     
Zr12     Zr     0.036530000000     0.530650000000     0.986720000000     1.431      
Zr13     Zr     0.437140000000     0.030530000000     0.986860000000     1.43101    
Zr14     Zr     0.536520000000     0.030660000000     0.986970000000     1.43109    
Zr15     Zr     0.437260000000     0.931100000000     0.986770000000     1.43079    
Zr16     Zr     0.486830000000     0.980820000000     0.086700000000     1.42328    
Zr17     Zr     0.486940000000     0.980900000000     0.887050000000     1.42247    
Zr18     Zr     0.536680000000     0.931250000000     0.986900000000     1.4307     
Zr19     Zr     0.437140000000     0.431220000000     0.986810000000     1.43087    
Zr20     Zr     0.536530000000     0.431100000000     0.986900000000     1.43082    
Zr21     Zr     0.437270000000     0.530660000000     0.986700000000     1.4307     
Zr22     Zr     0.486920000000     0.480840000000     0.886980000000     1.4233     
Zr23     Zr     0.486840000000     0.480940000000     0.086630000000     1.42284    
Zr24     Zr     0.536680000000     0.530510000000     0.986780000000     1.43076    
Zr25     Zr     0.186770000000     0.282830000000     0.486730000000     1.29682    
Zr26     Zr     0.186520000000     0.179110000000     0.486860000000     1.29738    
Zr27     Zr     0.287280000000     0.282590000000     0.486750000000     1.29726    
Zr28     Zr     0.287020000000     0.178860000000     0.486840000000     1.29674    
Zr29     Zr     0.236900000000     0.230900000000     0.580120000000     1.26533    
Zr30     Zr     0.236900000000     0.230810000000     0.393570000000     1.26208    
Zr31     Zr     0.186750000000     0.782860000000     0.486800000000     1.29671    
Zr32     Zr     0.186550000000     0.679120000000     0.486710000000     1.29733    
Zr33     Zr     0.287240000000     0.782670000000     0.486820000000     1.29732    
Zr34     Zr     0.287050000000     0.678940000000     0.486680000000     1.29662    
Zr35     Zr     0.236900000000     0.730840000000     0.580080000000     1.26518    
Zr36     Zr     0.236900000000     0.730940000000     0.393550000000     1.26222    
Zr37     Zr     0.786980000000     0.178840000000     0.486880000000     1.29671    
Zr38     Zr     0.787310000000     0.282570000000     0.486790000000     1.29745    
Zr39     Zr     0.686490000000     0.179150000000     0.486900000000     1.2974     
Zr40     Zr     0.686810000000     0.282880000000     0.486760000000     1.29675    
Zr41     Zr     0.736900000000     0.230910000000     0.580150000000     1.26538    
Zr42     Zr     0.736900000000     0.230810000000     0.393600000000     1.26179    
Zr43     Zr     0.788910000000     0.780930000000     0.486840000000     1.29659    
Zr44     Zr     0.685170000000     0.781240000000     0.486870000000     1.29741    
Zr45     Zr     0.788620000000     0.680450000000     0.486750000000     1.29735    
Zr46     Zr     0.684890000000     0.680750000000     0.486720000000     1.29661    
Zr47     Zr     0.736900000000     0.730800000000     0.580120000000     1.26521    
Zr48     Zr     0.736900000000     0.730890000000     0.393580000000     1.26195    


