data_structure

_audit_creation_method RASPA-1.0
_audit_creation_date 2023-5-19
_audit_author_name 'Poobodin Mano'

_cell_length_a    27.1172
_cell_length_b    27.1159
_cell_length_c    27.1159
_cell_angle_alpha 90
_cell_angle_beta  90
_cell_angle_gamma 90
_cell_volume      19938.5

_symmetry_cell_setting          triclinic
_symmetry_space_group_name_Hall 'P 1'
_symmetry_space_group_name_H-M  'P 1'
_symmetry_Int_Tables_number     1

_symmetry_equiv_pos_as_xyz 'x,y,z'

loop_
_atom_site_label
_atom_site_type_symbol
_atom_site_fract_x
_atom_site_fract_y
_atom_site_fract_z
_atom_site_charge
C1       C      0.991050000000     0.118350000000     0.118340000000     0.395435   
C2       C      0.993990000000     0.866780000000     0.118290000000     0.395431   
C3       C      0.866740000000     0.993530000000     0.118330000000     0.395292   
C4       C      0.118300000000     0.991580000000     0.118320000000     0.395372   
C5       C      0.991030000000     0.866830000000     0.866720000000     0.395512   
C6       C      0.993980000000     0.118400000000     0.866770000000     0.395437   
C7       C      0.866720000000     0.866800000000     0.991540000000     0.395348   
C8       C      0.118290000000     0.866790000000     0.993470000000     0.3953     
C9       C      0.118300000000     0.118370000000     0.991590000000     0.395333   
C10      C      0.866740000000     0.118380000000     0.993530000000     0.395429   
C11      C      0.866720000000     0.991660000000     0.866750000000     0.395302   
C12      C      0.118290000000     0.993570000000     0.866740000000     0.395432   
C13      C      0.991030000000     0.366780000000     0.366770000000     0.395562   
C14      C      0.994010000000     0.618340000000     0.366720000000     0.39553    
C15      C      0.866740000000     0.491610000000     0.366740000000     0.395615   
C16      C      0.118300000000     0.493510000000     0.366750000000     0.395759   
C17      C      0.991050000000     0.618400000000     0.618290000000     0.395377   
C18      C      0.993970000000     0.366830000000     0.618340000000     0.39556    
C19      C      0.866740000000     0.618390000000     0.493470000000     0.395656   
C20      C      0.118310000000     0.618370000000     0.491540000000     0.395657   
C21      C      0.118280000000     0.366780000000     0.493530000000     0.395654   
C22      C      0.866720000000     0.366810000000     0.491600000000     0.395656   
C23      C      0.866730000000     0.493600000000     0.618320000000     0.39571    
C24      C      0.118290000000     0.491640000000     0.618330000000     0.395618   
C25      C      0.618300000000     0.991630000000     0.366750000000     0.395456   
C26      C      0.366740000000     0.993530000000     0.366730000000     0.395472   
C27      C      0.494010000000     0.866800000000     0.366750000000     0.395706   
C28      C      0.491040000000     0.118370000000     0.366750000000     0.395657   
C29      C      0.366720000000     0.991610000000     0.618320000000     0.395391   
C30      C      0.618290000000     0.993570000000     0.618330000000     0.395365   
C31      C      0.366740000000     0.866780000000     0.493480000000     0.39567    
C32      C      0.366720000000     0.118370000000     0.491570000000     0.395666   
C33      C      0.618280000000     0.118390000000     0.493510000000     0.395631   
C34      C      0.618310000000     0.866810000000     0.491570000000     0.39557    
C35      C      0.491040000000     0.866800000000     0.618320000000     0.395742   
C36      C      0.493960000000     0.118370000000     0.618320000000     0.395662   
C37      C      0.366740000000     0.366790000000     0.993510000000     0.395437   
C38      C      0.366730000000     0.618370000000     0.991570000000     0.395454   
C39      C      0.366740000000     0.491600000000     0.118330000000     0.39556    
C40      C      0.366730000000     0.493550000000     0.866750000000     0.395675   
C41      C      0.618290000000     0.618390000000     0.993490000000     0.39535    
C42      C      0.618310000000     0.366800000000     0.991570000000     0.395388   
C43      C      0.493990000000     0.618370000000     0.118320000000     0.395609   
C44      C      0.491030000000     0.618370000000     0.866750000000     0.39562    
C45      C      0.493980000000     0.366800000000     0.866750000000     0.395655   
C46      C      0.491060000000     0.366800000000     0.118320000000     0.3957     
C47      C      0.618310000000     0.493560000000     0.118320000000     0.39557    
C48      C      0.618290000000     0.491640000000     0.866730000000     0.395698   
C49      C      0.490130000000     0.341630000000     0.206880000000    -0.022886   
C50      C      0.490120000000     0.143540000000     0.278190000000    -0.0229476  
C51      C      0.490110000000     0.206930000000     0.341580000000    -0.0228609  
C52      C      0.489840000000     0.229500000000     0.291770000000     0.0133169  
C53      C      0.489840000000     0.193360000000     0.255620000000     0.0134733  
C54      C      0.489870000000     0.205420000000     0.205370000000    -0.0662965  
C55      C      0.490130000000     0.278240000000     0.143490000000    -0.0229317  
C56      C      0.489860000000     0.279750000000     0.279700000000    -0.0662056  
C57      C      0.489860000000     0.255680000000     0.193300000000     0.0134572  
C58      C      0.489850000000     0.291820000000     0.229440000000     0.0133259  
C59      C      0.494960000000     0.778240000000     0.341580000000    -0.0229066  
C60      C      0.494940000000     0.706930000000     0.143490000000    -0.0228535  
C61      C      0.494940000000     0.643540000000     0.206880000000    -0.0229083  
C62      C      0.495230000000     0.693360000000     0.229440000000     0.0133768  
C63      C      0.495230000000     0.729500000000     0.193300000000     0.0133639  
C64      C      0.495210000000     0.779750000000     0.205370000000    -0.0662304  
C65      C      0.494950000000     0.841630000000     0.278190000000    -0.0228563  
C66      C      0.495220000000     0.705420000000     0.279700000000    -0.0662756  
C67      C      0.495230000000     0.791820000000     0.255620000000     0.0133438  
C68      C      0.495230000000     0.755680000000     0.291770000000     0.0133679  
C69      C      0.490090000000     0.706930000000     0.841580000000    -0.0228208  
C70      C      0.490110000000     0.778240000000     0.643490000000    -0.0228701  
C71      C      0.490100000000     0.841630000000     0.706880000000    -0.0228745  
C72      C      0.489820000000     0.791820000000     0.729440000000     0.0133079  
C73      C      0.489820000000     0.755680000000     0.693300000000     0.0133639  
C74      C      0.489830000000     0.705420000000     0.705370000000    -0.0662886  
C75      C      0.490090000000     0.643540000000     0.778190000000    -0.0229148  
C76      C      0.489830000000     0.779750000000     0.779700000000    -0.0662226  
C77      C      0.489820000000     0.693360000000     0.755630000000     0.0133862  
C78      C      0.489810000000     0.729500000000     0.791770000000     0.0132861  
C79      C      0.494900000000     0.278240000000     0.841570000000    -0.0228845  
C80      C      0.494880000000     0.206930000000     0.643490000000    -0.0228766  
C81      C      0.494890000000     0.143540000000     0.706880000000    -0.0229473  
C82      C      0.495160000000     0.193350000000     0.729440000000     0.0134088  
C83      C      0.495160000000     0.229490000000     0.693300000000     0.0133314  
C84      C      0.495140000000     0.279750000000     0.705370000000    -0.0662159  
C85      C      0.494890000000     0.341630000000     0.778190000000    -0.0228227  
C86      C      0.495150000000     0.205420000000     0.779700000000    -0.0662528  
C87      C      0.495160000000     0.291820000000     0.755630000000     0.0133192  
C88      C      0.495170000000     0.255680000000     0.791770000000     0.0133719  
C89      C      0.841540000000     0.278250000000     0.491570000000    -0.0228637  
C90      C      0.643460000000     0.206950000000     0.493570000000    -0.0228374  
C91      C      0.706840000000     0.143570000000     0.493660000000    -0.0228725  
C92      C      0.729410000000     0.193370000000     0.493140000000     0.0133814  
C93      C      0.693270000000     0.229520000000     0.493090000000     0.0133124  
C94      C      0.705340000000     0.279770000000     0.492530000000    -0.0662205  
C95      C      0.778160000000     0.341640000000     0.491490000000    -0.0228583  
C96      C      0.779660000000     0.205440000000     0.492630000000    -0.0662664  
C97      C      0.755590000000     0.291830000000     0.492020000000     0.0133246  
C98      C      0.791730000000     0.255690000000     0.492060000000     0.0133556  
C99      C      0.778190000000     0.643570000000     0.493580000000    -0.022839   
C100     C      0.706870000000     0.841640000000     0.491430000000    -0.0228022  
C101     C      0.643490000000     0.778250000000     0.491520000000    -0.0228918  
C102     C      0.693300000000     0.755690000000     0.491990000000     0.0133586  
C103     C      0.729440000000     0.791830000000     0.491950000000     0.0132733  
C104     C      0.779690000000     0.779770000000     0.492460000000    -0.0662112  
C105     C      0.841570000000     0.706950000000     0.493500000000    -0.0228056  
C106     C      0.705370000000     0.705440000000     0.492550000000    -0.0662565  
C107     C      0.791760000000     0.729520000000     0.493010000000     0.0132746  
C108     C      0.755620000000     0.693370000000     0.493060000000     0.0133432  
C109     C      0.341540000000     0.206930000000     0.491540000000    -0.0228999  
C110     C      0.143460000000     0.278220000000     0.493590000000    -0.0229606  
C111     C      0.206840000000     0.341610000000     0.493670000000    -0.0228435  
C112     C      0.229410000000     0.291800000000     0.493140000000     0.013315   
C113     C      0.193270000000     0.255660000000     0.493100000000     0.013432   
C114     C      0.205340000000     0.205400000000     0.492520000000    -0.0662504  
C115     C      0.278160000000     0.143530000000     0.491460000000    -0.0229181  
C116     C      0.279660000000     0.279740000000     0.492610000000    -0.0662332  
C117     C      0.255590000000     0.193340000000     0.492000000000     0.0134264  
C118     C      0.291730000000     0.229480000000     0.492040000000     0.0133326  
C119     C      0.206870000000     0.643530000000     0.491410000000    -0.0228613  
C120     C      0.278190000000     0.841610000000     0.493590000000    -0.0228297  
C121     C      0.341570000000     0.778220000000     0.493510000000    -0.0228838  
C122     C      0.291760000000     0.755660000000     0.493020000000     0.0133321  
C123     C      0.255620000000     0.791800000000     0.493060000000     0.0133308  
C124     C      0.205370000000     0.779740000000     0.492530000000    -0.0662277  
C125     C      0.143490000000     0.706920000000     0.491480000000    -0.022861   
C126     C      0.279690000000     0.705400000000     0.492450000000    -0.0662311  
C127     C      0.193300000000     0.729490000000     0.491970000000     0.0133589  
C128     C      0.229440000000     0.693340000000     0.491930000000     0.0133363  
C129     C      0.841560000000     0.491560000000     0.278180000000    -0.0228277  
C130     C      0.643490000000     0.493600000000     0.206880000000    -0.0228426  
C131     C      0.706870000000     0.493680000000     0.143490000000    -0.0229371  
C132     C      0.729430000000     0.493150000000     0.193300000000     0.0133975  
C133     C      0.693290000000     0.493100000000     0.229440000000     0.013327   
C134     C      0.705360000000     0.492540000000     0.279690000000    -0.0662474  
C135     C      0.778180000000     0.491490000000     0.341560000000    -0.0228268  
C136     C      0.779680000000     0.492620000000     0.205360000000    -0.0662424  
C137     C      0.755610000000     0.492020000000     0.291760000000     0.0133264  
C138     C      0.791750000000     0.492060000000     0.255610000000     0.0133314  
C139     C      0.206860000000     0.493610000000     0.341580000000    -0.0228435  
C140     C      0.278180000000     0.491460000000     0.143500000000    -0.0229362  
C141     C      0.341560000000     0.491540000000     0.206890000000    -0.0228518  
C142     C      0.291750000000     0.492010000000     0.229450000000     0.0132925  
C143     C      0.255610000000     0.491970000000     0.193310000000     0.0134527  
C144     C      0.205360000000     0.492470000000     0.205370000000    -0.0662852  
C145     C      0.143480000000     0.493530000000     0.278190000000    -0.0228913  
C146     C      0.279680000000     0.492570000000     0.279710000000    -0.066192   
C147     C      0.193290000000     0.493030000000     0.255620000000     0.0134304  
C148     C      0.229430000000     0.493080000000     0.291770000000     0.0133062  
C149     C      0.206850000000     0.491520000000     0.643500000000    -0.0228568  
C150     C      0.278170000000     0.493680000000     0.841570000000    -0.0228312  
C151     C      0.341550000000     0.493600000000     0.778190000000    -0.0228175  
C152     C      0.291740000000     0.493120000000     0.755630000000     0.0133005  
C153     C      0.255600000000     0.493160000000     0.791770000000     0.0133535  
C154     C      0.205350000000     0.492650000000     0.779710000000    -0.0662592  
C155     C      0.143470000000     0.491600000000     0.706890000000    -0.0228757  
C156     C      0.279670000000     0.492550000000     0.705370000000    -0.0662128  
C157     C      0.193280000000     0.492090000000     0.729450000000     0.0133721  
C158     C      0.229420000000     0.492040000000     0.693310000000     0.0133227  
C159     C      0.643470000000     0.491620000000     0.778170000000    -0.0228966  
C160     C      0.841550000000     0.493670000000     0.706880000000    -0.0228591  
C161     C      0.778170000000     0.493750000000     0.643490000000    -0.0228457  
C162     C      0.755600000000     0.493230000000     0.693300000000     0.0133337  
C163     C      0.791740000000     0.493180000000     0.729440000000     0.0133098  
C164     C      0.779670000000     0.492610000000     0.779690000000    -0.0662517  
C165     C      0.706850000000     0.491540000000     0.841560000000    -0.0228168  
C166     C      0.705350000000     0.492700000000     0.705360000000    -0.0662529  
C167     C      0.729420000000     0.492090000000     0.791760000000     0.0132883  
C168     C      0.693280000000     0.492130000000     0.755610000000     0.0133558  
C169     C      0.706850000000     0.643560000000     0.993590000000    -0.0239505  
C170     C      0.778170000000     0.841630000000     0.991410000000    -0.023956   
C171     C      0.841540000000     0.778240000000     0.991480000000    -0.0239469  
C172     C      0.791740000000     0.755680000000     0.991970000000     0.0134591  
C173     C      0.755600000000     0.791820000000     0.991930000000     0.0134506  
C174     C      0.705350000000     0.779760000000     0.992450000000    -0.0665685  
C175     C      0.643470000000     0.706950000000     0.993520000000    -0.0240043  
C176     C      0.779670000000     0.705430000000     0.992540000000    -0.0665879  
C177     C      0.693280000000     0.729510000000     0.993020000000     0.0134654  
C178     C      0.729420000000     0.693370000000     0.993060000000     0.0134519  
C179     C      0.778180000000     0.143560000000     0.993660000000    -0.0240187  
C180     C      0.706870000000     0.341630000000     0.991460000000    -0.0240158  
C181     C      0.643490000000     0.278240000000     0.991540000000    -0.0239558  
C182     C      0.693300000000     0.255680000000     0.992040000000     0.0135025  
C183     C      0.729430000000     0.291820000000     0.991990000000     0.0134658  
C184     C      0.779680000000     0.279760000000     0.992520000000    -0.0665556  
C185     C      0.841560000000     0.206950000000     0.993590000000    -0.0239869  
C186     C      0.705360000000     0.205430000000     0.992610000000    -0.0666006  
C187     C      0.791750000000     0.229510000000     0.993090000000     0.0134446  
C188     C      0.755610000000     0.193370000000     0.993140000000     0.0135397  
C189     C      0.143470000000     0.778230000000     0.993500000000    -0.0239894  
C190     C      0.341550000000     0.706930000000     0.991520000000    -0.0239457  
C191     C      0.278170000000     0.643540000000     0.991440000000    -0.0239994  
C192     C      0.255600000000     0.693350000000     0.991950000000     0.0134901  
C193     C      0.291740000000     0.729490000000     0.991990000000     0.013443   
C194     C      0.279670000000     0.779750000000     0.992550000000    -0.0665682  
C195     C      0.206850000000     0.841620000000     0.993580000000    -0.0239764  
C196     C      0.205350000000     0.705420000000     0.992460000000    -0.0665407  
C197     C      0.229420000000     0.791810000000     0.993060000000     0.0134541  
C198     C      0.193280000000     0.755670000000     0.993010000000     0.0135147  
C199     C      0.206860000000     0.143540000000     0.991480000000    -0.0240038  
C200     C      0.278180000000     0.341620000000     0.993660000000    -0.0240266  
C201     C      0.341560000000     0.278230000000     0.993570000000    -0.0239574  
C202     C      0.291750000000     0.255670000000     0.993090000000     0.0134615  
C203     C      0.255610000000     0.291810000000     0.993140000000     0.0135207  
C204     C      0.205360000000     0.279750000000     0.992630000000    -0.066584   
C205     C      0.143480000000     0.206930000000     0.991570000000    -0.023988   
C206     C      0.279680000000     0.205410000000     0.992520000000    -0.0665376  
C207     C      0.193290000000     0.229490000000     0.992060000000     0.0135166  
C208     C      0.229430000000     0.193350000000     0.992010000000     0.0135148  
C209     C      0.643470000000     0.993630000000     0.706890000000    -0.0239515  
C210     C      0.841540000000     0.991640000000     0.778190000000    -0.0239068  
C211     C      0.778160000000     0.991550000000     0.841580000000    -0.0240362  
C212     C      0.755600000000     0.992080000000     0.791770000000     0.0134861  
C213     C      0.791730000000     0.992130000000     0.755630000000     0.013428   
C214     C      0.779670000000     0.992690000000     0.705370000000    -0.0665855  
C215     C      0.706850000000     0.993720000000     0.643500000000    -0.0240229  
C216     C      0.705350000000     0.992590000000     0.779710000000    -0.0665726  
C217     C      0.729420000000     0.993200000000     0.693310000000     0.0134792  
C218     C      0.693280000000     0.993150000000     0.729460000000     0.0134376  
C219     C      0.143470000000     0.993610000000     0.778170000000    -0.0240883  
C220     C      0.341540000000     0.991570000000     0.706880000000    -0.0239276  
C221     C      0.278160000000     0.991490000000     0.643490000000    -0.0240471  
C222     C      0.255600000000     0.992020000000     0.693300000000     0.0135446  
C223     C      0.291740000000     0.992060000000     0.729440000000     0.013425   
C224     C      0.279670000000     0.992630000000     0.779690000000    -0.0665463  
C225     C      0.206850000000     0.993690000000     0.841560000000    -0.0239213  
C226     C      0.205350000000     0.992540000000     0.705360000000    -0.0666083  
C227     C      0.229420000000     0.993160000000     0.791760000000     0.0134102  
C228     C      0.193280000000     0.993110000000     0.755610000000     0.0135755  
C229     C      0.143480000000     0.991520000000     0.206880000000    -0.0240251  
C230     C      0.341560000000     0.993560000000     0.278170000000    -0.0240354  
C231     C      0.278180000000     0.993630000000     0.341560000000    -0.0239569  
C232     C      0.255610000000     0.993090000000     0.291750000000     0.013488   
C233     C      0.291750000000     0.993050000000     0.255610000000     0.0135061  
C234     C      0.279680000000     0.992490000000     0.205360000000    -0.0665531  
C235     C      0.206860000000     0.991440000000     0.143490000000    -0.0239619  
C236     C      0.205360000000     0.992570000000     0.279690000000    -0.0665825  
C237     C      0.229430000000     0.991960000000     0.193300000000     0.0135014  
C238     C      0.193290000000     0.992010000000     0.229440000000     0.0135404  
C239     C      0.706860000000     0.991510000000     0.341580000000    -0.02397    
C240     C      0.778180000000     0.993660000000     0.143500000000    -0.0240245  
C241     C      0.841560000000     0.993570000000     0.206890000000    -0.0239544  
C242     C      0.791750000000     0.993090000000     0.229450000000     0.0134158  
C243     C      0.755610000000     0.993140000000     0.193310000000     0.0135591  
C244     C      0.705360000000     0.992630000000     0.205370000000    -0.0666213  
C245     C      0.643490000000     0.991590000000     0.278190000000    -0.0239191  
C246     C      0.779680000000     0.992530000000     0.279710000000    -0.0665317  
C247     C      0.693290000000     0.992070000000     0.255630000000     0.0134935  
C248     C      0.729430000000     0.992020000000     0.291770000000     0.0134453  
C249     C      0.994910000000     0.206960000000     0.841610000000    -0.0239518  
C250     C      0.994890000000     0.278270000000     0.643520000000    -0.0240298  
C251     C      0.994900000000     0.341660000000     0.706910000000    -0.0239604  
C252     C      0.995180000000     0.291850000000     0.729470000000     0.0134415  
C253     C      0.995170000000     0.255710000000     0.693330000000     0.013537   
C254     C      0.995160000000     0.205460000000     0.705400000000    -0.0665834  
C255     C      0.994900000000     0.143580000000     0.778220000000    -0.023978   
C256     C      0.995160000000     0.279780000000     0.779730000000    -0.0665394  
C257     C      0.995180000000     0.193390000000     0.755660000000     0.0135355  
C258     C      0.995180000000     0.229530000000     0.791800000000     0.0134466  
C259     C      0.990100000000     0.778270000000     0.841550000000    -0.0239838  
C260     C      0.990120000000     0.706960000000     0.643460000000    -0.0239611  
C261     C      0.990110000000     0.643580000000     0.706850000000    -0.0240001  
C262     C      0.989830000000     0.693390000000     0.729410000000     0.0134899  
C263     C      0.989830000000     0.729530000000     0.693270000000     0.0134576  
C264     C      0.989850000000     0.779780000000     0.705340000000    -0.0665601  
C265     C      0.990100000000     0.841660000000     0.778160000000    -0.0239539  
C266     C      0.989840000000     0.705460000000     0.779670000000    -0.066611   
C267     C      0.989830000000     0.791850000000     0.755590000000     0.0134508  
C268     C      0.989820000000     0.755710000000     0.791730000000     0.0134984  
C269     C      0.994940000000     0.643510000000     0.278160000000    -0.0240091  
C270     C      0.994930000000     0.841600000000     0.206850000000    -0.0239622  
C271     C      0.994930000000     0.778210000000     0.143460000000    -0.0240307  
C272     C      0.995220000000     0.755650000000     0.193270000000     0.0135508  
C273     C      0.995220000000     0.791790000000     0.229410000000     0.0134464  
C274     C      0.995210000000     0.779720000000     0.279670000000    -0.0665605  
C275     C      0.994950000000     0.706900000000     0.341540000000    -0.023922   
C276     C      0.995200000000     0.705390000000     0.205340000000    -0.0665849  
C277     C      0.995230000000     0.729460000000     0.291730000000     0.0134449  
C278     C      0.995220000000     0.693320000000     0.255590000000     0.0135259  
C279     C      0.990100000000     0.278210000000     0.341610000000    -0.0240325  
C280     C      0.990110000000     0.206900000000     0.143520000000    -0.0239665  
C281     C      0.990110000000     0.143510000000     0.206910000000    -0.0240622  
C282     C      0.989820000000     0.193320000000     0.229470000000     0.013564   
C283     C      0.989830000000     0.229460000000     0.193330000000     0.0135041  
C284     C      0.989840000000     0.279720000000     0.205400000000    -0.0665303  
C285     C      0.990100000000     0.341600000000     0.278220000000    -0.0239468  
C286     C      0.989840000000     0.205390000000     0.279730000000    -0.066576   
C287     C      0.989820000000     0.291790000000     0.255660000000     0.0134755  
C288     C      0.989820000000     0.255650000000     0.291800000000     0.0135319  
H1       H      0.921930000000     0.921940000000     0.063160000000     0.209172   
H2       H      0.063110000000     0.063210000000     0.063180000000     0.209179   
H3       H      0.921930000000     0.063240000000     0.921910000000     0.209158   
H4       H      0.063100000000     0.921960000000     0.921880000000     0.208974   
H5       H      0.921940000000     0.563220000000     0.421880000000     0.208989   
H6       H      0.063100000000     0.421930000000     0.421910000000     0.20894    
H7       H      0.921920000000     0.421970000000     0.563180000000     0.209195   
H8       H      0.063110000000     0.563230000000     0.563160000000     0.209041   
H9       H      0.421940000000     0.921940000000     0.421890000000     0.208992   
H10      H      0.563100000000     0.063230000000     0.421900000000     0.209034   
H11      H      0.563100000000     0.921960000000     0.563170000000     0.209184   
H12      H      0.421920000000     0.063220000000     0.563170000000     0.20915    
H13      H      0.421930000000     0.563220000000     0.063180000000     0.209034   
H14      H      0.421930000000     0.421950000000     0.921900000000     0.209082   
H15      H      0.563110000000     0.421950000000     0.063170000000     0.209052   
H16      H      0.563090000000     0.563230000000     0.921890000000     0.208984   
H17      H      0.456790000000     0.217680000000     0.362890000000     0.0434211  
H18      H      0.456800000000     0.122230000000     0.267440000000     0.0435739  
H19      H      0.489980000000     0.177200000000     0.177140000000     0.0430284  
H20      H      0.489970000000     0.307980000000     0.307930000000     0.0428239  
H21      H      0.456810000000     0.362950000000     0.217620000000     0.0434317  
H22      H      0.523440000000     0.267100000000     0.122350000000     0.0414719  
H23      H      0.523410000000     0.218080000000     0.362720000000     0.0413276  
H24      H      0.523420000000     0.122400000000     0.267050000000     0.0414843  
H25      H      0.456810000000     0.267500000000     0.122170000000     0.043575   
H26      H      0.523430000000     0.362770000000     0.218020000000     0.0413348  
H27      H      0.461640000000     0.622400000000     0.218030000000     0.0413345  
H28      H      0.461630000000     0.718080000000     0.122350000000     0.0414143  
H29      H      0.495100000000     0.807980000000     0.177140000000     0.0428744  
H30      H      0.495100000000     0.677200000000     0.307930000000     0.0428499  
H31      H      0.461660000000     0.767090000000     0.362720000000     0.0413301  
H32      H      0.528280000000     0.862950000000     0.267450000000     0.0433946  
H33      H      0.528270000000     0.622220000000     0.217610000000     0.0434293  
H34      H      0.528260000000     0.717670000000     0.122170000000     0.0435155  
H35      H      0.461650000000     0.862770000000     0.267040000000     0.0413045  
H36      H      0.528280000000     0.767500000000     0.362890000000     0.0434223  
H37      H      0.523400000000     0.862770000000     0.718030000000     0.0412651  
H38      H      0.523410000000     0.767090000000     0.622350000000     0.0413129  
H39      H      0.489950000000     0.677200000000     0.677140000000     0.0428514  
H40      H      0.489940000000     0.807980000000     0.807930000000     0.0427459  
H41      H      0.523390000000     0.718080000000     0.862720000000     0.041257   
H42      H      0.456770000000     0.622230000000     0.767450000000     0.0434285  
H43      H      0.456780000000     0.862950000000     0.717610000000     0.0433691  
H44      H      0.456780000000     0.767500000000     0.622170000000     0.0434078  
H45      H      0.523400000000     0.622400000000     0.767040000000     0.0413216  
H46      H      0.456760000000     0.717670000000     0.862890000000     0.0433524  
H47      H      0.461590000000     0.122400000000     0.718020000000     0.0414445  
H48      H      0.461580000000     0.218070000000     0.622350000000     0.0413302  
H49      H      0.495030000000     0.307980000000     0.677140000000     0.0428247  
H50      H      0.495040000000     0.177190000000     0.807930000000     0.0428807  
H51      H      0.461600000000     0.267100000000     0.862720000000     0.0413074  
H52      H      0.528220000000     0.362940000000     0.767440000000     0.0434002  
H53      H      0.528210000000     0.122230000000     0.717620000000     0.0435406  
H54      H      0.528200000000     0.217680000000     0.622170000000     0.0434244  
H55      H      0.461590000000     0.362780000000     0.767050000000     0.0413069  
H56      H      0.528230000000     0.267500000000     0.862890000000     0.0433982  
H57      H      0.717900000000     0.122640000000     0.527130000000     0.0434053  
H58      H      0.622490000000     0.218050000000     0.527000000000     0.0432991  
H59      H      0.677110000000     0.308000000000     0.492490000000     0.0428228  
H60      H      0.807880000000     0.177210000000     0.492670000000     0.042889   
H61      H      0.863020000000     0.267460000000     0.524780000000     0.0413734  
H62      H      0.767100000000     0.362560000000     0.458010000000     0.0433048  
H63      H      0.717680000000     0.122040000000     0.460500000000     0.0415016  
H64      H      0.621980000000     0.217750000000     0.460370000000     0.0413891  
H65      H      0.767330000000     0.363180000000     0.524640000000     0.0413908  
H66      H      0.862500000000     0.267140000000     0.458150000000     0.0432945  
H67      H      0.622010000000     0.767450000000     0.524720000000     0.0413914  
H68      H      0.717710000000     0.863170000000     0.524600000000     0.0413229  
H69      H      0.807920000000     0.808000000000     0.492420000000     0.0427388  
H70      H      0.677140000000     0.677210000000     0.492590000000     0.0428298  
H71      H      0.767130000000     0.622640000000     0.527050000000     0.0432963  
H72      H      0.863050000000     0.717740000000     0.460290000000     0.0413205  
H73      H      0.622520000000     0.767150000000     0.458090000000     0.0433033  
H74      H      0.717930000000     0.862570000000     0.457970000000     0.0432424  
H75      H      0.862540000000     0.718060000000     0.526920000000     0.0432299  
H76      H      0.767360000000     0.622030000000     0.460420000000     0.0413826  
H77      H      0.217670000000     0.363140000000     0.460510000000     0.0414098  
H78      H      0.121970000000     0.267430000000     0.460390000000     0.0415571  
H79      H      0.177110000000     0.177170000000     0.492490000000     0.0430033  
H80      H      0.307880000000     0.307970000000     0.492650000000     0.042837   
H81      H      0.362490000000     0.218040000000     0.458110000000     0.0433232  
H82      H      0.267330000000     0.121990000000     0.524610000000     0.0415509  
H83      H      0.217900000000     0.362530000000     0.527140000000     0.0433129  
H84      H      0.122500000000     0.267120000000     0.527010000000     0.0434674  
H85      H      0.267090000000     0.122620000000     0.457990000000     0.0434652  
H86      H      0.363030000000     0.217710000000     0.524740000000     0.0414138  
H87      H      0.363060000000     0.767430000000     0.460320000000     0.0413997  
H88      H      0.267360000000     0.863140000000     0.460430000000     0.0413752  
H89      H      0.177140000000     0.807970000000     0.492570000000     0.0428697  
H90      H      0.307920000000     0.677170000000     0.492420000000     0.042825   
H91      H      0.217930000000     0.622610000000     0.457940000000     0.0433178  
H92      H      0.122000000000     0.717720000000     0.524680000000     0.0414898  
H93      H      0.362530000000     0.767110000000     0.526940000000     0.0432993  
H94      H      0.267120000000     0.862530000000     0.527060000000     0.0432856  
H95      H      0.122530000000     0.718020000000     0.458050000000     0.043405   
H96      H      0.217700000000     0.622000000000     0.524570000000     0.041404   
H97      H      0.717690000000     0.460510000000     0.121960000000     0.0415223  
H98      H      0.621990000000     0.460400000000     0.217670000000     0.0413961  
H99      H      0.677140000000     0.492510000000     0.307920000000     0.0428389  
H100     H      0.807910000000     0.492650000000     0.177130000000     0.0428741  
H101     H      0.862520000000     0.458130000000     0.267070000000     0.043275   
H102     H      0.767350000000     0.524650000000     0.363100000000     0.0413843  
H103     H      0.717930000000     0.527140000000     0.122570000000     0.0434336  
H104     H      0.622520000000     0.527030000000     0.217980000000     0.0432992  
H105     H      0.767110000000     0.458020000000     0.362490000000     0.0432923  
H106     H      0.863050000000     0.524760000000     0.267380000000     0.0413664  
H107     H      0.362530000000     0.458120000000     0.217990000000     0.0433099  
H108     H      0.267130000000     0.457990000000     0.122570000000     0.0434676  
H109     H      0.177140000000     0.492440000000     0.177140000000     0.0430211  
H110     H      0.307910000000     0.492610000000     0.307940000000     0.0428168  
H111     H      0.217690000000     0.460450000000     0.363110000000     0.0414005  
H112     H      0.122520000000     0.526950000000     0.267070000000     0.0434465  
H113     H      0.363040000000     0.524740000000     0.217690000000     0.0414005  
H114     H      0.267340000000     0.524620000000     0.121980000000     0.0415614  
H115     H      0.122000000000     0.460320000000     0.267400000000     0.0415375  
H116     H      0.217930000000     0.527080000000     0.362500000000     0.0433093  
H117     H      0.362520000000     0.527020000000     0.767080000000     0.0432864  
H118     H      0.267110000000     0.527150000000     0.862500000000     0.0432804  
H119     H      0.177120000000     0.492690000000     0.807930000000     0.0428875  
H120     H      0.307900000000     0.492510000000     0.677140000000     0.0428196  
H121     H      0.217690000000     0.524670000000     0.621970000000     0.0414008  
H122     H      0.122500000000     0.458180000000     0.718000000000     0.043405   
H123     H      0.363030000000     0.460390000000     0.767390000000     0.0413724  
H124     H      0.267330000000     0.460520000000     0.863110000000     0.0413671  
H125     H      0.121990000000     0.524810000000     0.717680000000     0.0414915  
H126     H      0.217910000000     0.458040000000     0.622580000000     0.0433129  
H127     H      0.767110000000     0.527210000000     0.622560000000     0.043296   
H128     H      0.862510000000     0.527100000000     0.717980000000     0.0432428  
H129     H      0.807890000000     0.492570000000     0.807920000000     0.0427591  
H130     H      0.677120000000     0.492730000000     0.677130000000     0.0428289  
H131     H      0.621980000000     0.524820000000     0.767390000000     0.0413982  
H132     H      0.717920000000     0.458070000000     0.862480000000     0.0432459  
H133     H      0.767330000000     0.460590000000     0.621960000000     0.0413899  
H134     H      0.863040000000     0.460470000000     0.717680000000     0.0413398  
H135     H      0.717670000000     0.524700000000     0.863100000000     0.0413346  
H136     H      0.622510000000     0.458190000000     0.767060000000     0.0433024  
H137     H      0.862510000000     0.767140000000     0.958050000000     0.0434205  
H138     H      0.767110000000     0.862560000000     0.957950000000     0.0434385  
H139     H      0.677120000000     0.807990000000     0.992430000000     0.0426746  
H140     H      0.807890000000     0.677200000000     0.992570000000     0.0426889  
H141     H      0.717670000000     0.622020000000     0.960430000000     0.041543   
H142     H      0.622510000000     0.718050000000     0.026950000000     0.0441929  
H143     H      0.863040000000     0.767450000000     0.024680000000     0.0422526  
H144     H      0.767340000000     0.863160000000     0.024570000000     0.0422632  
H145     H      0.621980000000     0.717740000000     0.960320000000     0.0415483  
H146     H      0.717920000000     0.622640000000     0.027060000000     0.0441851  
H147     H      0.621990000000     0.267450000000     0.024740000000     0.04231    
H148     H      0.717690000000     0.363170000000     0.024610000000     0.0423034  
H149     H      0.807910000000     0.307990000000     0.992480000000     0.0426732  
H150     H      0.677140000000     0.177200000000     0.992640000000     0.0428189  
H151     H      0.767120000000     0.122640000000     0.027130000000     0.044333   
H152     H      0.863050000000     0.217740000000     0.960390000000     0.0415382  
H153     H      0.622520000000     0.267130000000     0.958110000000     0.0434841  
H154     H      0.717930000000     0.362550000000     0.957990000000     0.0434776  
H155     H      0.862520000000     0.218050000000     0.027020000000     0.0441723  
H156     H      0.767350000000     0.122020000000     0.960510000000     0.0417016  
H157     H      0.267110000000     0.622620000000     0.957970000000     0.043505   
H158     H      0.362520000000     0.718030000000     0.958090000000     0.0434481  
H159     H      0.307890000000     0.807980000000     0.992590000000     0.0426852  
H160     H      0.177120000000     0.677180000000     0.992420000000     0.0427842  
H161     H      0.121990000000     0.767440000000     0.960290000000     0.0416799  
H162     H      0.217910000000     0.862540000000     0.027050000000     0.0441827  
H163     H      0.267330000000     0.622020000000     0.024600000000     0.0423293  
H164     H      0.363030000000     0.717730000000     0.024720000000     0.042273   
H165     H      0.217680000000     0.863150000000     0.960420000000     0.0415393  
H166     H      0.122500000000     0.767120000000     0.026920000000     0.0443208  
H167     H      0.363040000000     0.267430000000     0.960360000000     0.0415699  
H168     H      0.267340000000     0.363150000000     0.960500000000     0.0416005  
H169     H      0.177140000000     0.307980000000     0.992660000000     0.0428156  
H170     H      0.307910000000     0.177180000000     0.992480000000     0.0427947  
H171     H      0.217930000000     0.122620000000     0.958010000000     0.0436049  
H172     H      0.122000000000     0.217720000000     0.024780000000     0.0424242  
H173     H      0.362530000000     0.267130000000     0.026990000000     0.0442242  
H174     H      0.267130000000     0.362540000000     0.027120000000     0.0442528  
H175     H      0.122520000000     0.218050000000     0.958150000000     0.0435986  
H176     H      0.217690000000     0.122010000000     0.024640000000     0.0424346  
H177     H      0.767100000000     0.958080000000     0.862500000000     0.0434579  
H178     H      0.862510000000     0.958210000000     0.767080000000     0.0434153  
H179     H      0.807890000000     0.992730000000     0.677140000000     0.0426879  
H180     H      0.677120000000     0.992550000000     0.807940000000     0.0426756  
H181     H      0.621990000000     0.960430000000     0.717690000000     0.0415348  
H182     H      0.717900000000     0.027190000000     0.622580000000     0.044206   
H183     H      0.767340000000     0.024710000000     0.863110000000     0.0422825  
H184     H      0.863030000000     0.024840000000     0.767400000000     0.0422374  
H185     H      0.717690000000     0.960560000000     0.621970000000     0.0415609  
H186     H      0.622500000000     0.027050000000     0.717990000000     0.0441788  
H187     H      0.267340000000     0.024640000000     0.621950000000     0.042349   
H188     H      0.363040000000     0.024770000000     0.717670000000     0.0422681  
H189     H      0.307890000000     0.992670000000     0.807920000000     0.0426792  
H190     H      0.177120000000     0.992510000000     0.677130000000     0.0428119  
H191     H      0.122510000000     0.027040000000     0.767070000000     0.0443446  
H192     H      0.217680000000     0.960530000000     0.863100000000     0.0415245  
H193     H      0.267100000000     0.958020000000     0.622570000000     0.0435198  
H194     H      0.362510000000     0.958140000000     0.717990000000     0.0434391  
H195     H      0.217920000000     0.027160000000     0.862480000000     0.0441633  
H196     H      0.121980000000     0.960420000000     0.767390000000     0.0417132  
H197     H      0.267360000000     0.960470000000     0.363100000000     0.0415845  
H198     H      0.363050000000     0.960360000000     0.267390000000     0.041598   
H199     H      0.307910000000     0.992460000000     0.177130000000     0.0427987  
H200     H      0.177140000000     0.992610000000     0.307920000000     0.0428159  
H201     H      0.122520000000     0.958090000000     0.217980000000     0.0436102  
H202     H      0.217700000000     0.024600000000     0.121960000000     0.0424235  
H203     H      0.267110000000     0.027100000000     0.362480000000     0.0442324  
H204     H      0.362520000000     0.026980000000     0.267060000000     0.0442417  
H205     H      0.217920000000     0.957970000000     0.122560000000     0.0435976  
H206     H      0.121990000000     0.024720000000     0.217680000000     0.0424334  
H207     H      0.863040000000     0.960370000000     0.217680000000     0.041531   
H208     H      0.767340000000     0.960500000000     0.121970000000     0.041691   
H209     H      0.677140000000     0.992670000000     0.177150000000     0.042833   
H210     H      0.807910000000     0.992490000000     0.307940000000     0.0426665  
H211     H      0.717920000000     0.958040000000     0.362510000000     0.043456   
H212     H      0.622000000000     0.024790000000     0.267390000000     0.0423     
H213     H      0.862530000000     0.026990000000     0.218000000000     0.0441681  
H214     H      0.767120000000     0.027130000000     0.122580000000     0.0443376  
H215     H      0.622510000000     0.958160000000     0.267080000000     0.0434686  
H216     H      0.717700000000     0.024660000000     0.363110000000     0.0422847  
H217     H      0.028220000000     0.362980000000     0.717650000000     0.0442904  
H218     H      0.028220000000     0.267530000000     0.622210000000     0.0443472  
H219     H      0.995050000000     0.177230000000     0.677170000000     0.0428069  
H220     H      0.995060000000     0.308010000000     0.807960000000     0.0426714  
H221     H      0.028240000000     0.217700000000     0.862920000000     0.0442792  
H222     H      0.961600000000     0.122430000000     0.767080000000     0.0416024  
H223     H      0.961590000000     0.362810000000     0.718050000000     0.041464   
H224     H      0.961590000000     0.267130000000     0.622380000000     0.0415282  
H225     H      0.028230000000     0.122260000000     0.767470000000     0.0444248  
H226     H      0.961610000000     0.218100000000     0.862760000000     0.0414542  
H227     H      0.956790000000     0.622260000000     0.717590000000     0.0435728  
H228     H      0.956800000000     0.717700000000     0.622140000000     0.0435618  
H229     H      0.989960000000     0.808010000000     0.677110000000     0.042677   
H230     H      0.989950000000     0.677230000000     0.807890000000     0.0426993  
H231     H      0.956770000000     0.767530000000     0.862860000000     0.0435469  
H232     H      0.023410000000     0.862810000000     0.767020000000     0.0421729  
H233     H      0.023410000000     0.622430000000     0.718000000000     0.0422122  
H234     H      0.023420000000     0.718110000000     0.622320000000     0.0422018  
H235     H      0.956780000000     0.862980000000     0.767420000000     0.0435366  
H236     H      0.023400000000     0.767120000000     0.862690000000     0.0421889  
H237     H      0.961620000000     0.767070000000     0.122320000000     0.041617   
H238     H      0.961630000000     0.862740000000     0.218000000000     0.0414598  
H239     H      0.995100000000     0.807950000000     0.307890000000     0.0426854  
H240     H      0.995090000000     0.677160000000     0.177110000000     0.0428082  
H241     H      0.961640000000     0.622370000000     0.267010000000     0.0415164  
H242     H      0.028270000000     0.717640000000     0.362860000000     0.0442846  
H243     H      0.028250000000     0.767470000000     0.122140000000     0.0444399  
H244     H      0.028260000000     0.862920000000     0.217590000000     0.0442799  
H245     H      0.961650000000     0.718050000000     0.362690000000     0.0414605  
H246     H      0.028270000000     0.622190000000     0.267420000000     0.0443359  
H247     H      0.956790000000     0.122190000000     0.217640000000     0.0437356  
H248     H      0.956790000000     0.217640000000     0.122200000000     0.0437126  
H249     H      0.989950000000     0.307950000000     0.177170000000     0.0427974  
H250     H      0.989950000000     0.177160000000     0.307960000000     0.0428102  
H251     H      0.956770000000     0.267470000000     0.362920000000     0.0436197  
H252     H      0.023400000000     0.362740000000     0.267070000000     0.0422438  
H253     H      0.023410000000     0.122370000000     0.218060000000     0.0423684  
H254     H      0.023420000000     0.218050000000     0.122380000000     0.042344   
H255     H      0.956770000000     0.362910000000     0.267470000000     0.0435969  
H256     H      0.023400000000     0.267070000000     0.362750000000     0.0422647  
N1       N      0.490400000000     0.331350000000     0.153770000000    -0.166171   
N2       N      0.490390000000     0.153830000000     0.331290000000    -0.166102   
N3       N      0.494680000000     0.831350000000     0.331300000000    -0.166203   
N4       N      0.494660000000     0.653830000000     0.153770000000    -0.166135   
N5       N      0.490360000000     0.653830000000     0.831300000000    -0.166164   
N6       N      0.490380000000     0.831350000000     0.653770000000    -0.166221   
N7       N      0.494630000000     0.331350000000     0.831290000000    -0.166181   
N8       N      0.494620000000     0.153820000000     0.653770000000    -0.166161   
N9       N      0.831260000000     0.331350000000     0.491360000000    -0.166174   
N10      N      0.653740000000     0.153850000000     0.493770000000    -0.166142   
N11      N      0.831290000000     0.653850000000     0.493710000000    -0.166221   
N12      N      0.653770000000     0.831360000000     0.491320000000    -0.166191   
N13      N      0.331260000000     0.153820000000     0.491330000000    -0.166158   
N14      N      0.153740000000     0.331330000000     0.493790000000    -0.166158   
N15      N      0.153770000000     0.653820000000     0.491280000000    -0.166172   
N16      N      0.331290000000     0.831330000000     0.493720000000    -0.166235   
N17      N      0.831280000000     0.491360000000     0.331280000000    -0.166169   
N18      N      0.653760000000     0.493800000000     0.153770000000    -0.166179   
N19      N      0.153760000000     0.493740000000     0.331290000000    -0.166156   
N20      N      0.331280000000     0.491350000000     0.153790000000    -0.166113   
N21      N      0.153750000000     0.491390000000     0.653790000000    -0.166136   
N22      N      0.331270000000     0.493800000000     0.831290000000    -0.166185   
N23      N      0.653750000000     0.491410000000     0.831280000000    -0.166212   
N24      N      0.831270000000     0.493860000000     0.653770000000    -0.166212   
N25      N      0.653750000000     0.653840000000     0.993730000000    -0.166006   
N26      N      0.831270000000     0.831350000000     0.991290000000    -0.166035   
N27      N      0.831280000000     0.153840000000     0.993780000000    -0.165944   
N28      N      0.653760000000     0.331350000000     0.991330000000    -0.166032   
N29      N      0.153750000000     0.831330000000     0.993700000000    -0.16593    
N30      N      0.331270000000     0.653830000000     0.991320000000    -0.16599    
N31      N      0.153760000000     0.153830000000     0.991360000000    -0.165902   
N32      N      0.331280000000     0.331330000000     0.993770000000    -0.165983   
N33      N      0.653740000000     0.993830000000     0.653790000000    -0.166005   
N34      N      0.831270000000     0.991420000000     0.831290000000    -0.165993   
N35      N      0.153750000000     0.993820000000     0.831280000000    -0.165943   
N36      N      0.331270000000     0.991360000000     0.653770000000    -0.166031   
N37      N      0.153760000000     0.991320000000     0.153770000000    -0.165934   
N38      N      0.331280000000     0.993770000000     0.331280000000    -0.166016   
N39      N      0.653760000000     0.991390000000     0.331290000000    -0.165998   
N40      N      0.831280000000     0.993780000000     0.153790000000    -0.165924   
N41      N      0.994640000000     0.153850000000     0.831330000000    -0.166019   
N42      N      0.994620000000     0.331380000000     0.653800000000    -0.166008   
N43      N      0.990370000000     0.831380000000     0.831270000000    -0.166035   
N44      N      0.990390000000     0.653860000000     0.653740000000    -0.165977   
N45      N      0.994670000000     0.653800000000     0.331270000000    -0.166006   
N46      N      0.994650000000     0.831320000000     0.153740000000    -0.165948   
N47      N      0.990370000000     0.331320000000     0.331320000000    -0.166004   
N48      N      0.990390000000     0.153800000000     0.153800000000    -0.165917   
O1       O      0.991430000000     0.132550000000     0.072820000000    -0.376283   
O2       O      0.993600000000     0.852590000000     0.072760000000    -0.37631    
O3       O      0.912260000000     0.993230000000     0.132530000000    -0.37668    
O4       O      0.072780000000     0.991880000000     0.132520000000    -0.376324   
O5       O      0.132490000000     0.991780000000     0.072790000000    -0.376274   
O6       O      0.852540000000     0.993350000000     0.072800000000    -0.376261   
O7       O      0.993610000000     0.912300000000     0.132500000000    -0.376638   
O8       O      0.991430000000     0.072820000000     0.132530000000    -0.376235   
O9       O      0.042400000000     0.942690000000     0.042400000000    -0.506078   
O10      O      0.942640000000     0.042460000000     0.042430000000    -0.506041   
O11      O      0.942460000000     0.942510000000     0.042590000000    -0.651116   
O12      O      0.042570000000     0.042640000000     0.042610000000    -0.649886   
O13      O      0.991420000000     0.852630000000     0.912250000000    -0.376631   
O14      O      0.993600000000     0.132590000000     0.912300000000    -0.376636   
O15      O      0.852530000000     0.912330000000     0.991740000000    -0.376642   
O16      O      0.132490000000     0.912320000000     0.993290000000    -0.37663    
O17      O      0.132490000000     0.072840000000     0.991770000000    -0.376279   
O18      O      0.852540000000     0.072860000000     0.993330000000    -0.376305   
O19      O      0.912250000000     0.991950000000     0.852550000000    -0.376672   
O20      O      0.072770000000     0.993280000000     0.852540000000    -0.376359   
O21      O      0.852530000000     0.991840000000     0.912280000000    -0.376637   
O22      O      0.132490000000     0.993370000000     0.912260000000    -0.376691   
O23      O      0.912250000000     0.852600000000     0.991830000000    -0.376658   
O24      O      0.912260000000     0.132580000000     0.993240000000    -0.376729   
O25      O      0.072780000000     0.132570000000     0.991890000000    -0.376346   
O26      O      0.072770000000     0.852590000000     0.993180000000    -0.3763     
O27      O      0.991420000000     0.912360000000     0.852540000000    -0.376729   
O28      O      0.993600000000     0.072870000000     0.852570000000    -0.376247   
O29      O      0.042400000000     0.042480000000     0.942660000000    -0.505993   
O30      O      0.942630000000     0.942710000000     0.942640000000    -0.507168   
O31      O      0.942460000000     0.042670000000     0.942480000000    -0.651006   
O32      O      0.042560000000     0.942530000000     0.942460000000    -0.650914   
O33      O      0.991410000000     0.352590000000     0.412300000000    -0.37676    
O34      O      0.993620000000     0.632550000000     0.412250000000    -0.376778   
O35      O      0.912260000000     0.491900000000     0.352540000000    -0.37663    
O36      O      0.072780000000     0.493220000000     0.352550000000    -0.376297   
O37      O      0.132490000000     0.493330000000     0.412270000000    -0.376673   
O38      O      0.852540000000     0.491810000000     0.412270000000    -0.376611   
O39      O      0.993620000000     0.572820000000     0.352530000000    -0.376822   
O40      O      0.991420000000     0.412300000000     0.352570000000    -0.376802   
O41      O      0.042400000000     0.542460000000     0.442640000000    -0.50686    
O42      O      0.942630000000     0.442700000000     0.442660000000    -0.507479   
O43      O      0.942470000000     0.542650000000     0.442460000000    -0.651796   
O44      O      0.042560000000     0.442510000000     0.442480000000    -0.651125   
O45      O      0.991440000000     0.632590000000     0.572760000000    -0.376734   
O46      O      0.993580000000     0.352630000000     0.572820000000    -0.376807   
O47      O      0.852550000000     0.572860000000     0.493290000000    -0.376654   
O48      O      0.132500000000     0.572840000000     0.491740000000    -0.376602   
O49      O      0.132480000000     0.412310000000     0.493330000000    -0.376581   
O50      O      0.852530000000     0.412340000000     0.491770000000    -0.376624   
O51      O      0.912250000000     0.493300000000     0.632520000000    -0.37666    
O52      O      0.072770000000     0.491940000000     0.632520000000    -0.376267   
O53      O      0.852540000000     0.493400000000     0.572790000000    -0.376657   
O54      O      0.132490000000     0.491820000000     0.572800000000    -0.376602   
O55      O      0.912270000000     0.632580000000     0.493170000000    -0.376644   
O56      O      0.912240000000     0.352610000000     0.491890000000    -0.376653   
O57      O      0.072760000000     0.352590000000     0.493240000000    -0.376249   
O58      O      0.072790000000     0.632570000000     0.491830000000    -0.376245   
O59      O      0.991430000000     0.572870000000     0.632500000000    -0.376705   
O60      O      0.993590000000     0.412360000000     0.632530000000    -0.376771   
O61      O      0.042390000000     0.442710000000     0.542430000000    -0.506858   
O62      O      0.942640000000     0.542490000000     0.542400000000    -0.507511   
O63      O      0.942450000000     0.442530000000     0.542610000000    -0.651928   
O64      O      0.042570000000     0.542660000000     0.542590000000    -0.651223   
O65      O      0.632490000000     0.991820000000     0.412280000000    -0.3768     
O66      O      0.352540000000     0.993350000000     0.412260000000    -0.376725   
O67      O      0.493620000000     0.912330000000     0.352550000000    -0.376522   
O68      O      0.491430000000     0.072840000000     0.352550000000    -0.37618    
O69      O      0.491420000000     0.132570000000     0.412270000000    -0.376621   
O70      O      0.493620000000     0.852610000000     0.412280000000    -0.376632   
O71      O      0.412260000000     0.993250000000     0.352540000000    -0.376866   
O72      O      0.572780000000     0.991920000000     0.352550000000    -0.376856   
O73      O      0.442630000000     0.042470000000     0.442650000000    -0.506891   
O74      O      0.542400000000     0.942710000000     0.442650000000    -0.507437   
O75      O      0.442470000000     0.942520000000     0.442460000000    -0.651775   
O76      O      0.542560000000     0.042660000000     0.442470000000    -0.651221   
O77      O      0.352530000000     0.991800000000     0.572790000000    -0.376741   
O78      O      0.632490000000     0.993380000000     0.572800000000    -0.376756   
O79      O      0.412270000000     0.852590000000     0.493190000000    -0.376671   
O80      O      0.412240000000     0.132570000000     0.491860000000    -0.376702   
O81      O      0.572760000000     0.132580000000     0.493220000000    -0.376686   
O82      O      0.572780000000     0.852610000000     0.491860000000    -0.37662    
O83      O      0.491420000000     0.912330000000     0.632510000000    -0.376562   
O84      O      0.493580000000     0.072840000000     0.632510000000    -0.376203   
O85      O      0.491430000000     0.852610000000     0.572790000000    -0.376605   
O86      O      0.493580000000     0.132570000000     0.572790000000    -0.376557   
O87      O      0.352550000000     0.912310000000     0.493300000000    -0.376567   
O88      O      0.632500000000     0.912340000000     0.491760000000    -0.376546   
O89      O      0.632480000000     0.072860000000     0.493320000000    -0.376205   
O90      O      0.352530000000     0.072840000000     0.491750000000    -0.376176   
O91      O      0.412250000000     0.991910000000     0.632520000000    -0.376759   
O92      O      0.572760000000     0.993270000000     0.632520000000    -0.376829   
O93      O      0.542390000000     0.042470000000     0.542420000000    -0.506893   
O94      O      0.442630000000     0.942700000000     0.542420000000    -0.507443   
O95      O      0.542570000000     0.942520000000     0.542600000000    -0.651931   
O96      O      0.442450000000     0.042650000000     0.542600000000    -0.65132    
O97      O      0.412260000000     0.352600000000     0.993220000000    -0.376849   
O98      O      0.412250000000     0.632570000000     0.991860000000    -0.376862   
O99      O      0.352540000000     0.491800000000     0.072800000000    -0.376162   
O100     O      0.352540000000     0.493360000000     0.912280000000    -0.376591   
O101     O      0.412250000000     0.493260000000     0.852550000000    -0.376717   
O102     O      0.412260000000     0.491900000000     0.132530000000    -0.376633   
O103     O      0.352540000000     0.572840000000     0.991760000000    -0.37678    
O104     O      0.352540000000     0.412320000000     0.993320000000    -0.376767   
O105     O      0.442630000000     0.542470000000     0.942650000000    -0.507431   
O106     O      0.442640000000     0.442700000000     0.042420000000    -0.506887   
O107     O      0.442460000000     0.542650000000     0.042600000000    -0.651231   
O108     O      0.442460000000     0.442520000000     0.942470000000    -0.651874   
O109     O      0.572770000000     0.632580000000     0.993200000000    -0.376836   
O110     O      0.572780000000     0.352600000000     0.991860000000    -0.37676    
O111     O      0.493610000000     0.572840000000     0.132510000000    -0.376619   
O112     O      0.491420000000     0.572840000000     0.852550000000    -0.376599   
O113     O      0.493600000000     0.412330000000     0.852550000000    -0.376582   
O114     O      0.491440000000     0.412330000000     0.132510000000    -0.376567   
O115     O      0.632500000000     0.493370000000     0.072790000000    -0.376167   
O116     O      0.632490000000     0.491820000000     0.912260000000    -0.376533   
O117     O      0.572780000000     0.493260000000     0.132520000000    -0.376588   
O118     O      0.572770000000     0.491930000000     0.852540000000    -0.376717   
O119     O      0.493610000000     0.632570000000     0.072790000000    -0.376126   
O120     O      0.491440000000     0.352610000000     0.072790000000    -0.376143   
O121     O      0.493600000000     0.352610000000     0.912280000000    -0.376595   
O122     O      0.491420000000     0.632570000000     0.912280000000    -0.376555   
O123     O      0.632490000000     0.572850000000     0.993300000000    -0.376688   
O124     O      0.632500000000     0.412330000000     0.991750000000    -0.376759   
O125     O      0.542400000000     0.442710000000     0.942650000000    -0.507483   
O126     O      0.542400000000     0.542470000000     0.042410000000    -0.5069     
O127     O      0.542570000000     0.442520000000     0.042600000000    -0.651219   
O128     O      0.542560000000     0.542650000000     0.942460000000    -0.651749   
Zr1      Zr     0.992520000000     0.992570000000     0.091970000000     1.42494    
Zr2      Zr     0.992510000000     0.893150000000     0.992520000000     1.42494    
Zr3      Zr     0.992520000000     0.092030000000     0.992550000000     1.42496    
Zr4      Zr     0.893080000000     0.992590000000     0.992540000000     1.42477    
Zr5      Zr     0.091950000000     0.992580000000     0.992530000000     1.42497    
Zr6      Zr     0.992510000000     0.992600000000     0.893090000000     1.42481    
Zr7      Zr     0.992520000000     0.492570000000     0.393090000000     1.42624    
Zr8      Zr     0.992520000000     0.592030000000     0.492510000000     1.42635    
Zr9      Zr     0.992500000000     0.393150000000     0.492550000000     1.42628    
Zr10     Zr     0.893080000000     0.492600000000     0.492530000000     1.42757    
Zr11     Zr     0.091950000000     0.492580000000     0.492540000000     1.42754    
Zr12     Zr     0.992510000000     0.492610000000     0.591970000000     1.42623    
Zr13     Zr     0.492520000000     0.992590000000     0.393090000000     1.42631    
Zr14     Zr     0.393080000000     0.992580000000     0.492530000000     1.42616    
Zr15     Zr     0.591950000000     0.992600000000     0.492540000000     1.42623    
Zr16     Zr     0.492520000000     0.893150000000     0.492530000000     1.42758    
Zr17     Zr     0.492500000000     0.092030000000     0.492530000000     1.42762    
Zr18     Zr     0.492510000000     0.992590000000     0.591970000000     1.42631    
Zr19     Zr     0.393080000000     0.492580000000     0.992540000000     1.42627    
Zr20     Zr     0.492510000000     0.592030000000     0.992530000000     1.4262     
Zr21     Zr     0.492520000000     0.393150000000     0.992530000000     1.4263     
Zr22     Zr     0.492520000000     0.492590000000     0.091970000000     1.42764    
Zr23     Zr     0.492510000000     0.492590000000     0.893090000000     1.4276     
Zr24     Zr     0.591950000000     0.492590000000     0.992530000000     1.42619    


