data_structure

_audit_creation_method RASPA-1.0
_audit_creation_date 2023-5-19
_audit_author_name 'Poobodin Mano'

_cell_length_a    27.577
_cell_length_b    27.5766
_cell_length_c    27.5948
_cell_angle_alpha 90
_cell_angle_beta  90
_cell_angle_gamma 90
_cell_volume      20985.3

_symmetry_cell_setting          triclinic
_symmetry_space_group_name_Hall 'P 1'
_symmetry_space_group_name_H-M  'P 1'
_symmetry_Int_Tables_number     1

_symmetry_equiv_pos_as_xyz 'x,y,z'

loop_
_atom_site_label
_atom_site_type_symbol
_atom_site_fract_x
_atom_site_fract_y
_atom_site_fract_z
_atom_site_charge
C1       C      0.994930000000     0.110550000000     0.113400000000     0.389587   
C2       C      0.998750000000     0.862910000000     0.107650000000     0.390124   
C3       C      0.868050000000     0.989460000000     0.113720000000     0.390388   
C4       C      0.115590000000     0.992100000000     0.108250000000     0.390004   
C5       C      0.991190000000     0.868840000000     0.860240000000     0.389043   
C6       C      0.979390000000     0.116210000000     0.866440000000     0.390013   
C7       C      0.867470000000     0.864010000000     0.980630000000     0.392593   
C8       C      0.114940000000     0.867580000000     0.978890000000     0.389227   
C9       C      0.110740000000     0.115010000000     0.979000000000     0.392601   
C10      C      0.863740000000     0.110950000000     0.000280000000     0.393681   
C11      C      0.862010000000     0.993550000000     0.866540000000     0.389916   
C12      C      0.109310000000     0.002740000000     0.861120000000     0.394601   
C13      C      0.981400000000     0.361090000000     0.366580000000     0.392909   
C14      C      0.985020000000     0.608620000000     0.359510000000     0.389163   
C15      C      0.864960000000     0.476240000000     0.363190000000     0.393555   
C16      C      0.112340000000     0.480780000000     0.363470000000     0.39021    
C17      C      0.982380000000     0.615030000000     0.606890000000     0.391087   
C18      C      0.992380000000     0.367690000000     0.613700000000     0.392469   
C19      C      0.863430000000     0.611360000000     0.479540000000     0.38955    
C20      C      0.111030000000     0.611280000000     0.476670000000     0.393783   
C21      C      0.111160000000     0.364160000000     0.495460000000     0.391261   
C22      C      0.863820000000     0.364010000000     0.485290000000     0.391988   
C23      C      0.863680000000     0.496490000000     0.610030000000     0.392555   
C24      C      0.111100000000     0.487370000000     0.610710000000     0.390287   
C25      C      0.613390000000     0.982950000000     0.367540000000     0.389223   
C26      C      0.607970000000     0.981180000000     0.614890000000     0.391707   
C27      C      0.610420000000     0.110550000000     0.493820000000     0.389997   
C28      C      0.610420000000     0.862880000000     0.497390000000     0.391304   
C29      C      0.360490000000     0.984900000000     0.610100000000     0.391282   
C30      C      0.366100000000     0.978470000000     0.362680000000     0.391898   
C31      C      0.477780000000     0.111170000000     0.611630000000     0.39192    
C32      C      0.480770000000     0.863790000000     0.613430000000     0.390803   
C33      C      0.482070000000     0.862300000000     0.366130000000     0.393363   
C34      C      0.487120000000     0.109740000000     0.364380000000     0.389662   
C35      C      0.362930000000     0.110590000000     0.482580000000     0.389861   
C36      C      0.362880000000     0.863070000000     0.491410000000     0.390877   
C37      C      0.363770000000     0.366670000000     0.992290000000     0.390856   
C38      C      0.611390000000     0.363010000000     0.985190000000     0.390051   
C39      C      0.487890000000     0.365170000000     0.864390000000     0.389888   
C40      C      0.495210000000     0.364450000000     0.111730000000     0.392097   
C41      C      0.615040000000     0.610630000000     0.990710000000     0.390699   
C42      C      0.367460000000     0.614340000000     0.994410000000     0.390767   
C43      C      0.612140000000     0.484640000000     0.863650000000     0.390271   
C44      C      0.614020000000     0.489580000000     0.111110000000     0.391502   
C45      C      0.366500000000     0.495940000000     0.112700000000     0.391531   
C46      C      0.364710000000     0.493690000000     0.865210000000     0.389504   
C47      C      0.497870000000     0.612620000000     0.865320000000     0.393754   
C48      C      0.495620000000     0.611740000000     0.112590000000     0.390737   
C49      C      0.499380000000     0.304260000000     0.233350000000     0.0123594  
C50      C      0.487520000000     0.281350000000     0.317420000000    -0.0429954  
C51      C      0.476310000000     0.195630000000     0.344040000000    -0.0228875  
C52      C      0.484910000000     0.232260000000     0.304550000000     0.0118275  
C53      C      0.478350000000     0.129870000000     0.278160000000    -0.0233732  
C54      C      0.487040000000     0.169790000000     0.241950000000     0.012193   
C55      C      0.495050000000     0.316820000000     0.282350000000    -0.0432287  
C56      C      0.489540000000     0.218830000000     0.255640000000    -0.00537259 
C57      C      0.491700000000     0.157220000000     0.192960000000    -0.0430179  
C58      C      0.498940000000     0.192730000000     0.157850000000    -0.0431505  
C59      C      0.509220000000     0.278670000000     0.131190000000    -0.0236585  
C60      C      0.501320000000     0.241830000000     0.170700000000     0.0118773  
C61      C      0.509600000000     0.343860000000     0.197220000000    -0.0241911  
C62      C      0.496850000000     0.255200000000     0.219670000000    -0.00576137 
C63      C      0.479060000000     0.803670000000     0.244290000000     0.0116602  
C64      C      0.493800000000     0.782230000000     0.160300000000    -0.0433323  
C65      C      0.509890000000     0.697230000000     0.133440000000    -0.0232581  
C66      C      0.498540000000     0.733230000000     0.172830000000     0.0116737  
C67      C      0.509510000000     0.631240000000     0.198380000000    -0.0231371  
C68      C      0.498120000000     0.670100000000     0.234930000000     0.0115686  
C69      C      0.483790000000     0.816940000000     0.195500000000    -0.0434452  
C70      C      0.493500000000     0.719100000000     0.221570000000    -0.00561554 
C71      C      0.493030000000     0.656800000000     0.283680000000    -0.0432816  
C72      C      0.483130000000     0.691540000000     0.318900000000    -0.0433095  
C73      C      0.467580000000     0.776670000000     0.345820000000    -0.0236224  
C74      C      0.478560000000     0.740560000000     0.306380000000     0.0118541  
C75      C      0.466490000000     0.842280000000     0.280680000000    -0.023553   
C76      C      0.483580000000     0.754660000000     0.257630000000    -0.00586922 
C77      C      0.480250000000     0.804930000000     0.735210000000     0.0119926  
C78      C      0.496720000000     0.783240000000     0.818850000000    -0.0432095  
C79      C      0.513790000000     0.698100000000     0.845020000000    -0.0236932  
C80      C      0.501630000000     0.734320000000     0.806020000000     0.0119894  
C81      C      0.513480000000     0.632680000000     0.779830000000    -0.0236606  
C82      C      0.500830000000     0.671480000000     0.743630000000     0.0119141  
C83      C      0.485800000000     0.818030000000     0.783970000000    -0.0434209  
C84      C      0.495910000000     0.720380000000     0.757300000000    -0.00582437 
C85      C      0.494980000000     0.658320000000     0.694930000000    -0.0433617  
C86      C      0.484000000000     0.693090000000     0.660080000000    -0.0433727  
C87      C      0.467030000000     0.778130000000     0.633880000000    -0.0233112  
C88      C      0.479160000000     0.742020000000     0.672910000000     0.0116603  
C89      C      0.466660000000     0.843600000000     0.699170000000    -0.0238123  
C90      C      0.484970000000     0.755990000000     0.721600000000    -0.00573041 
C91      C      0.472310000000     0.171110000000     0.733140000000     0.0124829  
C92      C      0.484130000000     0.193660000000     0.817310000000    -0.0428977  
C93      C      0.497320000000     0.279080000000     0.844060000000    -0.0228981  
C94      C      0.487990000000     0.242690000000     0.804500000000     0.0117202  
C95      C      0.497010000000     0.344910000000     0.778250000000    -0.0229215  
C96      C      0.487680000000     0.305240000000     0.741940000000     0.0117163  
C97      C      0.476010000000     0.158410000000     0.782160000000    -0.0433165  
C98      C      0.483960000000     0.256270000000     0.755570000000    -0.00525023 
C99      C      0.483600000000     0.317960000000     0.692930000000    -0.0429878  
C100     C      0.475670000000     0.282670000000     0.657740000000    -0.0433471  
C101     C      0.463240000000     0.196980000000     0.631020000000    -0.0237119  
C102     C      0.472040000000     0.233640000000     0.670530000000     0.0119422  
C103     C      0.461630000000     0.131790000000     0.696830000000    -0.0243579  
C104     C      0.476000000000     0.220120000000     0.719520000000    -0.00591595 
C105     C      0.804310000000     0.241870000000     0.483170000000     0.0116471  
C106     C      0.781730000000     0.157790000000     0.495960000000    -0.0431846  
C107     C      0.696010000000     0.131000000000     0.507410000000    -0.0235878  
C108     C      0.732600000000     0.170500000000     0.498410000000     0.0125741  
C109     C      0.630260000000     0.196620000000     0.505040000000    -0.0235386  
C110     C      0.669910000000     0.232940000000     0.495680000000     0.0126098  
C111     C      0.817070000000     0.192940000000     0.488080000000    -0.0429341  
C112     C      0.718990000000     0.219370000000     0.493240000000    -0.00575526 
C113     C      0.657120000000     0.281830000000     0.490400000000    -0.0432594  
C114     C      0.692460000000     0.316980000000     0.482540000000    -0.0428471  
C115     C      0.778240000000     0.343780000000     0.471550000000    -0.0227431  
C116     C      0.741600000000     0.304270000000     0.480260000000     0.0112315  
C117     C      0.843810000000     0.278090000000     0.472840000000    -0.0234226  
C118     C      0.755200000000     0.255400000000     0.485450000000    -0.00525411 
C119     C      0.669990000000     0.741230000000     0.498940000000     0.0121358  
C120     C      0.692250000000     0.657570000000     0.483040000000    -0.0432714  
C121     C      0.777520000000     0.631590000000     0.466580000000    -0.023781   
C122     C      0.741160000000     0.670600000000     0.478410000000     0.0118869  
C123     C      0.842860000000     0.697290000000     0.467130000000    -0.0233205  
C124     C      0.803680000000     0.733290000000     0.479480000000     0.0117278  
C125     C      0.657200000000     0.692350000000     0.493510000000    -0.0433119  
C126     C      0.754810000000     0.719410000000     0.484080000000    -0.00570578 
C127     C      0.816520000000     0.782110000000     0.485340000000    -0.0434213  
C128     C      0.781480000000     0.816870000000     0.495940000000    -0.0433098  
C129     C      0.696110000000     0.842800000000     0.512170000000    -0.0231951  
C130     C      0.732560000000     0.803850000000     0.500400000000     0.0113184  
C131     C      0.630970000000     0.777170000000     0.511960000000    -0.0243541  
C132     C      0.718910000000     0.755040000000     0.494600000000    -0.00582435 
C133     C      0.241240000000     0.170640000000     0.481920000000     0.012937   
C134     C      0.157430000000     0.193140000000     0.496710000000    -0.0427964  
C135     C      0.131320000000     0.278710000000     0.511310000000    -0.0231511  
C136     C      0.170410000000     0.242120000000     0.500550000000     0.0113429  
C137     C      0.196880000000     0.344050000000     0.509860000000    -0.0230585  
C138     C      0.233090000000     0.304640000000     0.498980000000     0.0111564  
C139     C      0.192310000000     0.157930000000     0.487130000000    -0.0434195  
C140     C      0.219290000000     0.255670000000     0.495170000000    -0.00533807 
C141     C      0.281990000000     0.317370000000     0.493600000000    -0.0432069  
C142     C      0.316880000000     0.282130000000     0.484200000000    -0.043532   
C143     C      0.343140000000     0.196580000000     0.470070000000    -0.023361   
C144     C      0.303910000000     0.233140000000     0.480410000000     0.0118777  
C145     C      0.277160000000     0.131430000000     0.469500000000    -0.0244551  
C146     C      0.255030000000     0.219590000000     0.485720000000    -0.00601037 
C147     C      0.170110000000     0.732680000000     0.471700000000     0.012667   
C148     C      0.191980000000     0.816610000000     0.486420000000    -0.0430838  
C149     C      0.276950000000     0.842930000000     0.503490000000    -0.0230978  
C150     C      0.240830000000     0.803720000000     0.491860000000     0.0114248  
C151     C      0.342440000000     0.777380000000     0.504620000000    -0.0229856  
C152     C      0.303500000000     0.741130000000     0.492570000000     0.0114431  
C153     C      0.157140000000     0.781600000000     0.476090000000    -0.0434528  
C154     C      0.254680000000     0.754850000000     0.487180000000    -0.00531106 
C155     C      0.316540000000     0.692250000000     0.487720000000    -0.0431001  
C156     C      0.281710000000     0.657250000000     0.477350000000    -0.0434211  
C157     C      0.196570000000     0.630980000000     0.460730000000    -0.0238175  
C158     C      0.232840000000     0.670130000000     0.472120000000     0.0123344  
C159     C      0.131420000000     0.696390000000     0.458870000000    -0.0243595  
C160     C      0.219000000000     0.719020000000     0.476860000000    -0.00612583 
C161     C      0.743910000000     0.470800000000     0.304190000000     0.0116109  
C162     C      0.660450000000     0.487220000000     0.281880000000    -0.0434037  
C163     C      0.634730000000     0.503020000000     0.196580000000    -0.0229867  
C164     C      0.673530000000     0.491090000000     0.232950000000     0.0116638  
C165     C      0.700200000000     0.500170000000     0.131050000000    -0.0231768  
C166     C      0.736120000000     0.488370000000     0.170370000000     0.012052   
C167     C      0.695120000000     0.476780000000     0.316990000000    -0.0434594  
C168     C      0.722240000000     0.484690000000     0.219280000000    -0.00570651 
C169     C      0.784870000000     0.481920000000     0.157550000000    -0.0433064  
C170     C      0.819590000000     0.471680000000     0.192680000000    -0.0431796  
C171     C      0.845360000000     0.456960000000     0.278310000000    -0.022962   
C172     C      0.806540000000     0.468120000000     0.241620000000     0.0111436  
C173     C      0.779850000000     0.457920000000     0.343130000000    -0.0236474  
C174     C      0.757760000000     0.474400000000     0.255230000000    -0.00573198 
C175     C      0.244620000000     0.499010000000     0.171640000000     0.0117395  
C176     C      0.160490000000     0.484510000000     0.193010000000    -0.0431914  
C177     C      0.133490000000     0.467770000000     0.277840000000    -0.0238722  
C178     C      0.172980000000     0.479400000000     0.241970000000     0.0125322  
C179     C      0.198430000000     0.468130000000     0.343970000000    -0.0237111  
C180     C      0.235060000000     0.479310000000     0.305060000000     0.012118   
C181     C      0.195760000000     0.494610000000     0.158380000000    -0.0431978  
C182     C      0.221760000000     0.484180000000     0.256100000000    -0.00576063 
C183     C      0.283890000000     0.484030000000     0.318340000000    -0.0433462  
C184     C      0.319230000000     0.493730000000     0.283640000000    -0.0431708  
C185     C      0.346420000000     0.509160000000     0.198590000000    -0.0238188  
C186     C      0.306760000000     0.498570000000     0.234650000000     0.0117872  
C187     C      0.281090000000     0.511880000000     0.133140000000    -0.0237879  
C188     C      0.257930000000     0.494050000000     0.220590000000    -0.00567065 
C189     C      0.233130000000     0.484470000000     0.671000000000     0.0116076  
C190     C      0.317500000000     0.494840000000     0.693790000000    -0.0432324  
C191     C      0.344450000000     0.505720000000     0.779440000000    -0.0235802  
C192     C      0.304740000000     0.497730000000     0.742860000000     0.0124464  
C193     C      0.278620000000     0.504850000000     0.845220000000    -0.0235457  
C194     C      0.242160000000     0.496830000000     0.805370000000     0.012475   
C195     C      0.282230000000     0.487920000000     0.658400000000    -0.0429581  
C196     C      0.255730000000     0.494010000000     0.756340000000    -0.00570979 
C197     C      0.193070000000     0.493110000000     0.817980000000    -0.0432199  
C198     C      0.157770000000     0.486480000000     0.782540000000    -0.042894   
C199     C      0.130720000000     0.476540000000     0.696770000000    -0.0230017  
C200     C      0.170510000000     0.483760000000     0.733450000000     0.0113026  
C201     C      0.196830000000     0.474920000000     0.631380000000    -0.0234313  
C202     C      0.219550000000     0.487320000000     0.720020000000    -0.00530997 
C203     C      0.741960000000     0.500190000000     0.669520000000     0.0123408  
C204     C      0.658100000000     0.486140000000     0.692180000000    -0.0431318  
C205     C      0.631910000000     0.472180000000     0.777720000000    -0.0230538  
C206     C      0.671110000000     0.482400000000     0.741130000000     0.0115004  
C207     C      0.697920000000     0.472600000000     0.842900000000    -0.0230868  
C208     C      0.733930000000     0.483730000000     0.803480000000     0.0119132  
C209     C      0.693000000000     0.495240000000     0.656900000000    -0.043347   
C210     C      0.720030000000     0.487550000000     0.754600000000    -0.00539736 
C211     C      0.782840000000     0.489160000000     0.816160000000    -0.0430451  
C212     C      0.817690000000     0.498560000000     0.780920000000    -0.0431887  
C213     C      0.843700000000     0.512680000000     0.695340000000    -0.0231684  
C214     C      0.804650000000     0.502160000000     0.731980000000     0.011796   
C215     C      0.778050000000     0.511640000000     0.630180000000    -0.0242901  
C216     C      0.755760000000     0.496750000000     0.718480000000    -0.00582878 
C217     C      0.808690000000     0.741770000000     0.975600000000     0.0126861  
C218     C      0.786610000000     0.657380000000     0.987410000000    -0.0422515  
C219     C      0.701300000000     0.630260000000     0.001480000000    -0.0204858  
C220     C      0.737600000000     0.669990000000     0.992110000000     0.00999335 
C221     C      0.635820000000     0.696070000000     0.004120000000    -0.0203939  
C222     C      0.674930000000     0.732510000000     0.993470000000     0.00994022 
C223     C      0.821640000000     0.692740000000     0.978970000000    -0.0438289  
C224     C      0.723830000000     0.718970000000     0.988600000000    -0.00426888 
C225     C      0.661890000000     0.781460000000     0.989640000000    -0.0424531  
C226     C      0.696810000000     0.816740000000     0.980770000000    -0.0437736  
C227     C      0.782000000000     0.843640000000     0.966260000000    -0.0238631  
C228     C      0.745790000000     0.804080000000     0.976170000000     0.0125353  
C229     C      0.847750000000     0.778400000000     0.964810000000    -0.0242993  
C230     C      0.759670000000     0.755160000000     0.980010000000    -0.00651111 
C231     C      0.803980000000     0.231870000000     0.005430000000     0.0110213  
C232     C      0.782060000000     0.315660000000     0.990030000000    -0.0448013  
C233     C      0.697070000000     0.341890000000     0.973100000000    -0.0236219  
C234     C      0.733140000000     0.302780000000     0.985150000000     0.0128432  
C235     C      0.631100000000     0.276670000000     0.974630000000    -0.0234571  
C236     C      0.670350000000     0.240360000000     0.985960000000     0.0124424  
C237     C      0.816950000000     0.280750000000     0.000510000000    -0.0416387  
C238     C      0.719280000000     0.254000000000     0.990500000000    -0.0073572  
C239     C      0.657400000000     0.191490000000     0.991220000000    -0.0450235  
C240     C      0.692400000000     0.156440000000     0.001070000000    -0.0415505  
C241     C      0.777890000000     0.129970000000     0.016180000000    -0.0219342  
C242     C      0.741360000000     0.169260000000     0.005600000000     0.0102004  
C243     C      0.842630000000     0.195760000000     0.018830000000    -0.0230032  
C244     C      0.755080000000     0.218170000000     0.000640000000    -0.00398013 
C245     C      0.237260000000     0.808350000000     0.978020000000     0.0128709  
C246     C      0.321230000000     0.785990000000     0.992370000000    -0.0422912  
C247     C      0.347720000000     0.700480000000     0.007060000000    -0.0211335  
C248     C      0.308380000000     0.736990000000     0.996590000000     0.00996589 
C249     C      0.281830000000     0.635280000000     0.007810000000    -0.0205563  
C250     C      0.245710000000     0.674480000000     0.996060000000     0.00963301 
C251     C      0.286210000000     0.821130000000     0.982940000000    -0.0437857  
C252     C      0.259470000000     0.723380000000     0.991620000000    -0.00441899 
C253     C      0.196830000000     0.661620000000     0.990780000000    -0.0424733  
C254     C      0.161920000000     0.696670000000     0.980850000000    -0.0439568  
C255     C      0.135650000000     0.781960000000     0.965350000000    -0.0236364  
C256     C      0.174810000000     0.745640000000     0.976600000000     0.0122969  
C257     C      0.201080000000     0.847600000000     0.966160000000    -0.0244928  
C258     C      0.223630000000     0.759350000000     0.981970000000    -0.00649809 
C259     C      0.169440000000     0.237070000000     0.975880000000     0.0121229  
C260     C      0.192020000000     0.320780000000     0.991040000000    -0.0425016  
C261     C      0.277690000000     0.347010000000     0.004700000000    -0.0210596  
C262     C      0.241050000000     0.307830000000     0.994350000000     0.0107557  
C263     C      0.342800000000     0.280930000000     0.004140000000    -0.021082   
C264     C      0.303510000000     0.245110000000     0.992060000000     0.0110915  
C265     C      0.156720000000     0.285930000000     0.981660000000    -0.043696   
C266     C      0.254590000000     0.259000000000     0.988470000000    -0.00474188 
C267     C      0.316320000000     0.196340000000     0.985690000000    -0.0426236  
C268     C      0.281140000000     0.161630000000     0.975620000000    -0.0434572  
C269     C      0.195550000000     0.135800000000     0.961050000000    -0.023174   
C270     C      0.232140000000     0.174630000000     0.972390000000     0.0116031  
C271     C      0.130090000000     0.200980000000     0.964280000000    -0.0243268  
C272     C      0.218500000000     0.223360000000     0.978790000000    -0.00612846 
C273     C      0.801070000000     0.994730000000     0.745520000000     0.0107012  
C274     C      0.778530000000     0.980460000000     0.661750000000    -0.0436304  
C275     C      0.693110000000     0.965440000000     0.635810000000    -0.0232471  
C276     C      0.729590000000     0.976500000000     0.674780000000     0.0116401  
C277     C      0.627380000000     0.968500000000     0.701030000000    -0.0236557  
C278     C      0.667040000000     0.978140000000     0.737380000000     0.0118849  
C279     C      0.813730000000     0.989960000000     0.696580000000    -0.0426909  
C280     C      0.716040000000     0.981700000000     0.723630000000    -0.00612364 
C281     C      0.654420000000     0.982960000000     0.786340000000    -0.0436222  
C282     C      0.689790000000     0.991520000000     0.821340000000    -0.0426968  
C283     C      0.775540000000     0.004550000000     0.847750000000    -0.0208308  
C284     C      0.738790000000     0.995270000000     0.808370000000     0.0100446  
C285     C      0.840210000000     0.007270000000     0.781320000000    -0.0211034  
C286     C      0.752190000000     0.990680000000     0.759400000000    -0.00479    
C287     C      0.229770000000     0.008200000000     0.801650000000     0.0109241  
C288     C      0.313270000000     0.991080000000     0.780080000000    -0.0451465  
C289     C      0.338980000000     0.971830000000     0.695480000000    -0.0235857  
C290     C      0.300260000000     0.985450000000     0.731310000000     0.0127402  
C291     C      0.274090000000     0.974050000000     0.629490000000    -0.0235531  
C292     C      0.237860000000     0.986290000000     0.668480000000     0.0127884  
C293     C      0.278560000000     0.002820000000     0.814730000000    -0.0417171  
C294     C      0.251580000000     0.991410000000     0.717320000000    -0.00750959 
C295     C      0.189070000000     0.992000000000     0.655420000000    -0.0449838  
C296     C      0.154180000000     0.002940000000     0.690220000000    -0.0413474  
C297     C      0.128080000000     0.019940000000     0.775460000000    -0.0223687  
C298     C      0.167100000000     0.008150000000     0.739050000000     0.0105194  
C299     C      0.193780000000     0.022730000000     0.839900000000    -0.0232358  
C300     C      0.215960000000     0.002730000000     0.752860000000    -0.00394241 
C301     C      0.245470000000     0.974420000000     0.301830000000     0.0123159  
C302     C      0.161820000000     0.989210000000     0.279110000000    -0.04257    
C303     C      0.136140000000     0.004760000000     0.193820000000    -0.0204354  
C304     C      0.175050000000     0.993510000000     0.230270000000     0.00997865 
C305     C      0.201840000000     0.003070000000     0.128350000000    -0.0208358  
C306     C      0.237910000000     0.992250000000     0.167970000000     0.0104419  
C307     C      0.196490000000     0.979320000000     0.314360000000    -0.0439675  
C308     C      0.223940000000     0.988220000000     0.216840000000    -0.00459843 
C309     C      0.286900000000     0.987050000000     0.155470000000    -0.0425434  
C310     C      0.321710000000     0.977790000000     0.190840000000    -0.0436185  
C311     C      0.347640000000     0.963900000000     0.276620000000    -0.0232222  
C312     C      0.308540000000     0.973800000000     0.239730000000     0.0113663  
C313     C      0.281240000000     0.961570000000     0.340920000000    -0.0243951  
C314     C      0.259530000000     0.978690000000     0.253010000000    -0.00639072 
C315     C      0.746160000000     0.992060000000     0.174160000000     0.0104621  
C316     C      0.661750000000     0.981650000000     0.196630000000    -0.043434   
C317     C      0.634530000000     0.970770000000     0.282090000000    -0.0235329  
C318     C      0.674330000000     0.978960000000     0.245740000000     0.012527   
C319     C      0.699890000000     0.973160000000     0.348360000000    -0.0234772  
C320     C      0.736610000000     0.980450000000     0.308520000000     0.0122471  
C321     C      0.697120000000     0.988540000000     0.161370000000    -0.0425273  
C322     C      0.723270000000     0.982870000000     0.259410000000    -0.00581589 
C323     C      0.785680000000     0.984140000000     0.321260000000    -0.0431874  
C324     C      0.821170000000     0.990370000000     0.285890000000    -0.04304    
C325     C      0.848630000000     0.999750000000     0.200060000000    -0.024338   
C326     C      0.808640000000     0.992850000000     0.236720000000     0.0115635  
C327     C      0.782480000000     0.001580000000     0.134650000000    -0.0209504  
C328     C      0.759610000000     0.989350000000     0.223200000000    -0.00505802 
C329     C      0.976840000000     0.238540000000     0.807880000000     0.0126695  
C330     C      0.991280000000     0.322460000000     0.785450000000    -0.0422411  
C331     C      0.005750000000     0.348780000000     0.699870000000    -0.0201322  
C332     C      0.995530000000     0.309520000000     0.736520000000     0.00938815 
C333     C      0.007730000000     0.282620000000     0.635210000000    -0.0201941  
C334     C      0.995320000000     0.246640000000     0.674200000000     0.00973603 
C335     C      0.981840000000     0.287480000000     0.820620000000    -0.044152   
C336     C      0.990600000000     0.260560000000     0.722990000000    -0.00423805 
C337     C      0.989870000000     0.197790000000     0.661330000000    -0.0422929  
C338     C      0.979430000000     0.163020000000     0.696310000000    -0.0440334  
C339     C      0.963010000000     0.137210000000     0.781470000000    -0.0237374  
C340     C      0.975010000000     0.176060000000     0.745180000000     0.0124794  
C341     C      0.965240000000     0.202310000000     0.847130000000    -0.0246051  
C342     C      0.980700000000     0.224850000000     0.758910000000    -0.00670603 
C343     C      0.978660000000     0.675590000000     0.728110000000     0.0120742  
C344     C      0.991340000000     0.698060000000     0.812150000000    -0.0427306  
C345     C      0.004150000000     0.783530000000     0.838780000000    -0.0204477  
C346     C      0.994310000000     0.747160000000     0.799390000000     0.0102715  
C347     C      0.999950000000     0.849790000000     0.773630000000    -0.0243935  
C348     C      0.991770000000     0.809940000000     0.737120000000     0.0117889  
C349     C      0.983110000000     0.662820000000     0.777060000000    -0.0436052  
C350     C      0.989310000000     0.760830000000     0.750580000000    -0.00511293 
C351     C      0.987140000000     0.822650000000     0.688150000000    -0.0431615  
C352     C      0.979940000000     0.787240000000     0.652870000000    -0.0432449  
C353     C      0.969640000000     0.701280000000     0.625840000000    -0.0236179  
C354     C      0.977360000000     0.738100000000     0.665540000000     0.0117732  
C355     C      0.967490000000     0.636320000000     0.692010000000    -0.0236572  
C356     C      0.981670000000     0.724610000000     0.714510000000    -0.00597866 
C357     C      0.001990000000     0.802050000000     0.228510000000     0.0159563  
C358     C      0.987460000000     0.779480000000     0.312230000000    -0.041515   
C359     C      0.972510000000     0.694120000000     0.338250000000    -0.0227698  
C360     C      0.983670000000     0.730500000000     0.299210000000     0.0103753  
C361     C      0.975960000000     0.628150000000     0.272940000000    -0.0241155  
C362     C      0.985820000000     0.667920000000     0.236700000000     0.0109207  
C363     C      0.997000000000     0.814710000000     0.277430000000    -0.0467523  
C364     C      0.989150000000     0.716930000000     0.250420000000    -0.00369818 
C365     C      0.991030000000     0.655320000000     0.187760000000    -0.0415507  
C366     C      0.999620000000     0.690720000000     0.152780000000    -0.046426   
C367     C      0.012180000000     0.776630000000     0.126350000000    -0.0241893  
C368     C      0.003030000000     0.739750000000     0.165710000000     0.0154026  
C369     C      0.014620000000     0.841190000000     0.192670000000    -0.02464    
C370     C      0.998170000000     0.753130000000     0.214660000000    -0.00953039 
C371     C      0.995340000000     0.231280000000     0.174070000000     0.0112683  
C372     C      0.978230000000     0.314540000000     0.196630000000    -0.0434609  
C373     C      0.962760000000     0.339810000000     0.282140000000    -0.0230053  
C374     C      0.974900000000     0.301320000000     0.245530000000     0.0113092  
C375     C      0.967970000000     0.274850000000     0.347620000000    -0.0229454  
C376     C      0.978830000000     0.238740000000     0.308070000000     0.0111582  
C377     C      0.988840000000     0.280050000000     0.161410000000    -0.0432207  
C378     C      0.981790000000     0.252640000000     0.259070000000    -0.00571929 
C379     C      0.985380000000     0.189950000000     0.320670000000    -0.0429237  
C380     C      0.995070000000     0.155270000000     0.285280000000    -0.0441839  
C381     C      0.008600000000     0.129420000000     0.199460000000    -0.0214429  
C382     C      0.998210000000     0.168390000000     0.236320000000     0.0106713  
C383     C      0.009140000000     0.195850000000     0.135050000000    -0.022378   
C384     C      0.991900000000     0.217220000000     0.222940000000    -0.00548377 
H1       H      0.922060000000     0.917020000000     0.056700000000     0.206685   
H2       H      0.059450000000     0.058630000000     0.055540000000     0.210409   
H3       H      0.916510000000     0.059680000000     0.921850000000     0.210774   
H4       H      0.058210000000     0.923650000000     0.914240000000     0.209414   
H5       H      0.918110000000     0.554500000000     0.414900000000     0.209834   
H6       H      0.057160000000     0.415710000000     0.419400000000     0.209051   
H7       H      0.917540000000     0.419830000000     0.558400000000     0.207656   
H8       H      0.057170000000     0.559650000000     0.554410000000     0.206675   
H9       H      0.554640000000     0.056340000000     0.559830000000     0.208042   
H10      H      0.557480000000     0.915870000000     0.421350000000     0.208185   
H11      H      0.418630000000     0.054910000000     0.417390000000     0.209705   
H12      H      0.416350000000     0.918280000000     0.557060000000     0.213208   
H13      H      0.556790000000     0.418740000000     0.918730000000     0.211501   
H14      H      0.419510000000     0.420180000000     0.058800000000     0.208101   
H15      H      0.420680000000     0.560120000000     0.919650000000     0.208035   
H16      H      0.559930000000     0.556390000000     0.057010000000     0.212837   
H17      H      0.502920000000     0.098980000000     0.269640000000     0.0463782  
H18      H      0.548180000000     0.354940000000     0.201030000000     0.0441934  
H19      H      0.438380000000     0.199800000000     0.357110000000     0.0393479  
H20      H      0.485710000000     0.269150000000     0.099800000000     0.0448834  
H21      H      0.497560000000     0.354410000000     0.293550000000     0.0359121  
H22      H      0.483910000000     0.292270000000     0.354970000000     0.0355585  
H23      H      0.499760000000     0.204910000000     0.375560000000     0.0463198  
H24      H      0.486980000000     0.375950000000     0.206630000000     0.045427   
H25      H      0.489630000000     0.119600000000     0.181810000000     0.0360693  
H26      H      0.440940000000     0.115820000000     0.272760000000     0.0406873  
H27      H      0.502570000000     0.181830000000     0.120300000000     0.0359086  
H28      H      0.547150000000     0.275100000000     0.117990000000     0.0441753  
H29      H      0.488160000000     0.598200000000     0.207420000000     0.0457843  
H30      H      0.427300000000     0.850980000000     0.276970000000     0.0415494  
H31      H      0.548720000000     0.701400000000     0.123420000000     0.038696   
H32      H      0.489140000000     0.767160000000     0.378580000000     0.0450641  
H33      H      0.479740000000     0.854480000000     0.184610000000     0.035306   
H34      H      0.497720000000     0.793670000000     0.122930000000     0.0353984  
H35      H      0.488740000000     0.706890000000     0.100470000000     0.0458653  
H36      H      0.487130000000     0.875730000000     0.271490000000     0.0454683  
H37      H      0.496750000000     0.619220000000     0.294530000000     0.0352667  
H38      H      0.548270000000     0.620970000000     0.202630000000     0.0385608  
H39      H      0.479110000000     0.680100000000     0.356250000000     0.0357602  
H40      H      0.428880000000     0.772450000000     0.356290000000     0.0430791  
H41      H      0.552600000000     0.623910000000     0.775600000000     0.0433726  
H42      H      0.487230000000     0.877190000000     0.708000000000     0.0461402  
H43      H      0.493510000000     0.707710000000     0.878540000000     0.0453801  
H44      H      0.428140000000     0.773630000000     0.624240000000     0.0384149  
H45      H      0.481650000000     0.855480000000     0.795090000000     0.0353473  
H46      H      0.501190000000     0.794540000000     0.856190000000     0.0357568  
H47      H      0.552890000000     0.702080000000     0.854030000000     0.0432328  
H48      H      0.427480000000     0.851970000000     0.703640000000     0.0387132  
H49      H      0.498930000000     0.620830000000     0.683830000000     0.0356293  
H50      H      0.493330000000     0.598980000000     0.770470000000     0.0453014  
H51      H      0.479390000000     0.681780000000     0.622760000000     0.0352904  
H52      H      0.487930000000     0.768800000000     0.600650000000     0.0458806  
H53      H      0.473220000000     0.376360000000     0.769550000000     0.0462698  
H54      H      0.422740000000     0.121680000000     0.700100000000     0.0441234  
H55      H      0.535180000000     0.274170000000     0.857070000000     0.0392274  
H56      H      0.486310000000     0.206360000000     0.599260000000     0.0448149  
H57      H      0.472600000000     0.120880000000     0.793290000000     0.0360335  
H58      H      0.487270000000     0.182630000000     0.854870000000     0.0355755  
H59      H      0.473720000000     0.270240000000     0.875590000000     0.0462776  
H60      H      0.483330000000     0.099170000000     0.706560000000     0.0458265  
H61      H      0.486610000000     0.355540000000     0.681840000000     0.0355782  
H62      H      0.534780000000     0.358090000000     0.773160000000     0.0392427  
H63      H      0.472460000000     0.293690000000     0.620190000000     0.0357612  
H64      H      0.425100000000     0.200850000000     0.618520000000     0.0438771  
H65      H      0.598740000000     0.205420000000     0.481410000000     0.0464757  
H66      H      0.855430000000     0.273690000000     0.434500000000     0.0417512  
H67      H      0.699550000000     0.119040000000     0.545730000000     0.0406653  
H68      H      0.768460000000     0.375760000000     0.494160000000     0.0448609  
H69      H      0.854710000000     0.181870000000     0.485780000000     0.0355985  
H70      H      0.792790000000     0.120290000000     0.500000000000     0.0360386  
H71      H      0.705780000000     0.098900000000     0.484960000000     0.0465624  
H72      H      0.875650000000     0.269260000000     0.496020000000     0.0453765  
H73      H      0.619460000000     0.292870000000     0.492420000000     0.0359374  
H74      H      0.617330000000     0.201600000000     0.542880000000     0.040483   
H75      H      0.681410000000     0.354460000000     0.478360000000     0.0354364  
H76      H      0.774810000000     0.355960000000     0.433280000000     0.0413517  
H77      H      0.876000000000     0.706300000000     0.488330000000     0.0457509  
H78      H      0.622140000000     0.772720000000     0.551010000000     0.0431548  
H79      H      0.772950000000     0.621520000000     0.427840000000     0.040046   
H80      H      0.705480000000     0.876100000000     0.491380000000     0.0448612  
H81      H      0.619770000000     0.681040000000     0.497390000000     0.0358584  
H82      H      0.681160000000     0.620130000000     0.478640000000     0.0355921  
H83      H      0.768420000000     0.598480000000     0.487790000000     0.045839   
H84      H      0.597670000000     0.768110000000     0.491020000000     0.0456939  
H85      H      0.853980000000     0.793390000000     0.481670000000     0.0352749  
H86      H      0.852760000000     0.702340000000     0.428400000000     0.0389412  
H87      H      0.792600000000     0.854280000000     0.500560000000     0.0352117  
H88      H      0.700210000000     0.852470000000     0.551070000000     0.0412261  
H89      H      0.206230000000     0.376740000000     0.488110000000     0.0447239  
H90      H      0.272620000000     0.121890000000     0.430620000000     0.0403765  
H91      H      0.121290000000     0.275270000000     0.550180000000     0.0410649  
H92      H      0.375470000000     0.205610000000     0.492480000000     0.0459485  
H93      H      0.181030000000     0.120450000000     0.483700000000     0.0361769  
H94      H      0.119950000000     0.182110000000     0.500940000000     0.0356273  
H95      H      0.098210000000     0.268960000000     0.490390000000     0.0452191  
H96      H      0.268150000000     0.098490000000     0.491030000000     0.0469908  
H97      H      0.293220000000     0.354890000000     0.496710000000     0.0352751  
H98      H      0.201250000000     0.354780000000     0.548460000000     0.0412711  
H99      H      0.354370000000     0.293140000000     0.479990000000     0.0353206  
H100     H      0.354740000000     0.201030000000     0.431730000000     0.0389337  
H101     H      0.375780000000     0.768090000000     0.483840000000     0.0456503  
H102     H      0.123560000000     0.699620000000     0.419490000000     0.0435576  
H103     H      0.272030000000     0.853510000000     0.542050000000     0.0386491  
H104     H      0.206010000000     0.597910000000     0.481840000000     0.0456122  
H105     H      0.119730000000     0.792760000000     0.471540000000     0.0360436  
H106     H      0.180770000000     0.854090000000     0.490050000000     0.0353114  
H107     H      0.268000000000     0.875730000000     0.481740000000     0.0456892  
H108     H      0.097650000000     0.706040000000     0.478740000000     0.0461657  
H109     H      0.353980000000     0.681120000000     0.492010000000     0.035246   
H110     H      0.352020000000     0.773050000000     0.543520000000     0.0386029  
H111     H      0.292930000000     0.619790000000     0.473540000000     0.0358595  
H112     H      0.200680000000     0.621020000000     0.421910000000     0.0432181  
H113     H      0.708710000000     0.477880000000     0.098510000000     0.0465021  
H114     H      0.776170000000     0.418620000000     0.351290000000     0.040961   
H115     H      0.625390000000     0.542050000000     0.200480000000     0.0385836  
H116     H      0.879000000000     0.476860000000     0.268250000000     0.0449043  
H117     H      0.683820000000     0.473440000000     0.354450000000     0.0353047  
H118     H      0.623070000000     0.492170000000     0.292930000000     0.0352553  
H119     H      0.601240000000     0.482570000000     0.206110000000     0.0458512  
H120     H      0.770310000000     0.478210000000     0.376670000000     0.0453803  
H121     H      0.796120000000     0.484870000000     0.120040000000     0.035694   
H122     H      0.705770000000     0.538550000000     0.120030000000     0.0387337  
H123     H      0.856960000000     0.466650000000     0.181640000000     0.0352014  
H124     H      0.854240000000     0.417730000000     0.275590000000     0.0403958  
H125     H      0.207240000000     0.490020000000     0.376700000000     0.0459453  
H126     H      0.277600000000     0.551200000000     0.124970000000     0.0419393  
H127     H      0.123310000000     0.429050000000     0.273180000000     0.0405852  
H128     H      0.378680000000     0.486690000000     0.207720000000     0.0451017  
H129     H      0.184870000000     0.499000000000     0.120910000000     0.03561    
H130     H      0.123090000000     0.480800000000     0.181550000000     0.036094   
H131     H      0.100560000000     0.489130000000     0.268390000000     0.0465093  
H132     H      0.271720000000     0.491740000000     0.099450000000     0.0455244  
H133     H      0.294720000000     0.480150000000     0.355890000000     0.0355749  
H134     H      0.203030000000     0.429590000000     0.354840000000     0.0404445  
H135     H      0.356640000000     0.497370000000     0.295080000000     0.0357662  
H136     H      0.357890000000     0.547510000000     0.203390000000     0.0430826  
H137     H      0.269570000000     0.480570000000     0.876160000000     0.0463891  
H138     H      0.200680000000     0.436570000000     0.619530000000     0.0421054  
H139     H      0.357940000000     0.543500000000     0.775390000000     0.0407255  
H140     H      0.100170000000     0.501350000000     0.705780000000     0.044924   
H141     H      0.293340000000     0.485190000000     0.620820000000     0.0355633  
H142     H      0.355120000000     0.497770000000     0.682830000000     0.0358894  
H143     H      0.375680000000     0.481920000000     0.770040000000     0.0464021  
H144     H      0.206120000000     0.498120000000     0.599680000000     0.0451199  
H145     H      0.182000000000     0.495440000000     0.855580000000     0.0359647  
H146     H      0.274050000000     0.542420000000     0.859130000000     0.040768   
H147     H      0.120140000000     0.483580000000     0.793480000000     0.0356083  
H148     H      0.116070000000     0.439220000000     0.701150000000     0.0419961  
H149     H      0.707130000000     0.494590000000     0.875480000000     0.0462789  
H150     H      0.773970000000     0.550460000000     0.620100000000     0.0432289  
H151     H      0.620360000000     0.433780000000     0.773460000000     0.0388986  
H152     H      0.876730000000     0.491640000000     0.705120000000     0.0452381  
H153     H      0.681710000000     0.498440000000     0.619410000000     0.0358928  
H154     H      0.620570000000     0.482130000000     0.681240000000     0.0353336  
H155     H      0.599520000000     0.494520000000     0.768640000000     0.0457024  
H156     H      0.768840000000     0.489720000000     0.597590000000     0.0458068  
H157     H      0.794120000000     0.486080000000     0.853650000000     0.0355538  
H158     H      0.702740000000     0.434090000000     0.853800000000     0.0387144  
H159     H      0.855160000000     0.502900000000     0.791890000000     0.035532   
H160     H      0.853880000000     0.551550000000     0.698630000000     0.0412664  
H161     H      0.602930000000     0.705730000000     0.982790000000     0.0448944  
H162     H      0.857850000000     0.775160000000     0.925940000000     0.0437504  
H163     H      0.706330000000     0.617210000000     0.039270000000     0.0385438  
H164     H      0.772380000000     0.875880000000     0.988540000000     0.0453933  
H165     H      0.859160000000     0.681780000000     0.975030000000     0.0359274  
H166     H      0.797800000000     0.619810000000     0.990150000000     0.035206   
H167     H      0.710000000000     0.598790000000     0.977750000000     0.0452829  
H168     H      0.880480000000     0.769050000000     0.986500000000     0.0454516  
H169     H      0.624360000000     0.792440000000     0.993550000000     0.0349249  
H170     H      0.625350000000     0.699820000000     0.042860000000     0.0385963  
H171     H      0.685570000000     0.854270000000     0.977640000000     0.0358094  
H172     H      0.777880000000     0.855090000000     0.927840000000     0.0435336  
H173     H      0.598630000000     0.268190000000     0.997070000000     0.0456013  
H174     H      0.849740000000     0.198930000000     0.058360000000     0.0429824  
H175     H      0.701700000000     0.351710000000     0.934290000000     0.0386621  
H176     H      0.768670000000     0.097360000000     0.994270000000     0.0441132  
H177     H      0.854370000000     0.291950000000     0.004770000000     0.0355283  
H178     H      0.793290000000     0.353090000000     0.985870000000     0.0357334  
H179     H      0.706410000000     0.375080000000     0.994100000000     0.0463584  
H180     H      0.876710000000     0.205680000000     0.999640000000     0.044928   
H181     H      0.619880000000     0.180380000000     0.987600000000     0.0355665  
H182     H      0.619720000000     0.271360000000     0.936340000000     0.0389225  
H183     H      0.681220000000     0.118980000000     0.005050000000     0.0352935  
H184     H      0.773740000000     0.119020000000     0.054730000000     0.0410375  
H185     H      0.272400000000     0.602160000000     0.986750000000     0.0439155  
H186     H      0.205800000000     0.857970000000     0.927510000000     0.0403257  
H187     H      0.359220000000     0.705030000000     0.045410000000     0.0428428  
H188     H      0.102710000000     0.772500000000     0.986680000000     0.0460654  
H189     H      0.297390000000     0.858640000000     0.979400000000     0.035883   
H190     H      0.358720000000     0.797090000000     0.996270000000     0.0354364  
H191     H      0.380110000000     0.709460000000     0.984710000000     0.0440916  
H192     H      0.209710000000     0.880160000000     0.988400000000     0.0465378  
H193     H      0.185630000000     0.624120000000     0.994370000000     0.0349821  
H194     H      0.277380000000     0.625360000000     0.046610000000     0.0413648  
H195     H      0.124480000000     0.685520000000     0.976590000000     0.0354956  
H196     H      0.125330000000     0.777710000000     0.926630000000     0.0390788  
H197     H      0.375780000000     0.271820000000     0.982720000000     0.0456857  
H198     H      0.119620000000     0.205550000000     0.925650000000     0.043493   
H199     H      0.273410000000     0.358460000000     0.043100000000     0.03999    
H200     H      0.205880000000     0.102060000000     0.980640000000     0.045079   
H201     H      0.119170000000     0.297150000000     0.978880000000     0.0358538  
H202     H      0.181010000000     0.358230000000     0.995610000000     0.0355712  
H203     H      0.268650000000     0.379460000000     0.982470000000     0.0455881  
H204     H      0.097640000000     0.209700000000     0.986650000000     0.0453123  
H205     H      0.353850000000     0.185080000000     0.988580000000     0.0356444  
H206     H      0.352910000000     0.275840000000     0.042810000000     0.0399319  
H207     H      0.292210000000     0.124270000000     0.970500000000     0.0353646  
H208     H      0.198240000000     0.127170000000     0.921790000000     0.04113    
H209     H      0.595580000000     0.991750000000     0.709910000000     0.04474    
H210     H      0.849100000000     0.046390000000     0.777280000000     0.0386993  
H211     H      0.696350000000     0.926390000000     0.626340000000     0.0417969  
H212     H      0.767100000000     0.980750000000     0.879230000000     0.0445937  
H213     H      0.851190000000     0.993600000000     0.685260000000     0.0352025  
H214     H      0.789540000000     0.976380000000     0.624270000000     0.0352677  
H215     H      0.703140000000     0.985860000000     0.602490000000     0.0448261  
H216     H      0.873430000000     0.986410000000     0.771740000000     0.0457602  
H217     H      0.616880000000     0.980030000000     0.797550000000     0.0357372  
H218     H      0.614910000000     0.930450000000     0.705770000000     0.0432335  
H219     H      0.678870000000     0.995170000000     0.858880000000     0.0351799  
H220     H      0.770690000000     0.042340000000     0.860920000000     0.0399456  
H221     H      0.265750000000     0.995930000000     0.596630000000     0.0462296  
H222     H      0.196830000000     0.062510000000     0.845620000000     0.0408553  
H223     H      0.347000000000     0.932580000000     0.700010000000     0.0386357  
H224     H      0.094810000000     0.999020000000     0.766290000000     0.0441766  
H225     H      0.289820000000     0.007620000000     0.852040000000     0.0350918  
H226     H      0.350620000000     0.986490000000     0.791380000000     0.0354761  
H227     H      0.373000000000     0.991370000000     0.704990000000     0.0458694  
H228     H      0.203860000000     0.004750000000     0.874570000000     0.045914   
H229     H      0.177930000000     0.987930000000     0.617990000000     0.0358572  
H230     H      0.268640000000     0.935540000000     0.618890000000     0.0385885  
H231     H      0.116770000000     0.007260000000     0.679000000000     0.0356463  
H232     H      0.118440000000     0.058860000000     0.771340000000     0.0427979  
H233     H      0.210590000000     0.980400000000     0.096130000000     0.045292   
H234     H      0.277760000000     0.922200000000     0.348850000000     0.0434548  
H235     H      0.125780000000     0.043500000000     0.198030000000     0.0386235  
H236     H      0.379930000000     0.986430000000     0.267720000000     0.04457    
H237     H      0.185020000000     0.975480000000     0.351720000000     0.035746   
H238     H      0.124280000000     0.993330000000     0.289990000000     0.0349837  
H239     H      0.103160000000     0.983420000000     0.203150000000     0.0451853  
H240     H      0.271220000000     0.981550000000     0.374510000000     0.0454663  
H241     H      0.298280000000     0.990290000000     0.118020000000     0.0356435  
H242     H      0.207030000000     0.041320000000     0.116710000000     0.0400968  
H243     H      0.359280000000     0.973850000000     0.180020000000     0.0353409  
H244     H      0.359400000000     0.925560000000     0.272540000000     0.0412014  
H245     H      0.708400000000     0.998440000000     0.378650000000     0.0461011  
H246     H      0.778560000000     0.039900000000     0.122710000000     0.0422066  
H247     H      0.621500000000     0.932800000000     0.278200000000     0.040885   
H248     H      0.878930000000     0.974580000000     0.208930000000     0.0445199  
H249     H      0.686140000000     0.991160000000     0.123750000000     0.035358   
H250     H      0.624180000000     0.978570000000     0.185520000000     0.035906   
H251     H      0.603080000000     0.994140000000     0.272310000000     0.0462061  
H252     H      0.773170000000     0.978310000000     0.103010000000     0.0446167  
H253     H      0.796600000000     0.982120000000     0.358930000000     0.0358051  
H254     H      0.704820000000     0.936100000000     0.363460000000     0.0408966  
H255     H      0.858770000000     0.993220000000     0.296940000000     0.035658   
H256     H      0.863710000000     0.036870000000     0.204580000000     0.0445352  
H257     H      0.987960000000     0.272610000000     0.601500000000     0.0443509  
H258     H      0.926590000000     0.206840000000     0.857620000000     0.0403071  
H259     H      0.044100000000     0.360450000000     0.704250000000     0.0407203  
H260     H      0.982830000000     0.103500000000     0.771460000000     0.0460778  
H261     H      0.978370000000     0.298690000000     0.858100000000     0.0356589  
H262     H      0.995160000000     0.359980000000     0.796460000000     0.035063   
H263     H      0.983250000000     0.381110000000     0.708720000000     0.04393    
H264     H      0.987630000000     0.210940000000     0.879570000000     0.0460987  
H265     H      0.993680000000     0.186510000000     0.623910000000     0.0351042  
H266     H      0.046970000000     0.278820000000     0.626740000000     0.0407051  
H267     H      0.974910000000     0.125610000000     0.685190000000     0.0355111  
H268     H      0.923780000000     0.128560000000     0.778030000000     0.0387962  
H269     H      0.974690000000     0.880230000000     0.765560000000     0.0461678  
H270     H      0.928550000000     0.626460000000     0.695560000000     0.0418734  
H271     H      0.042740000000     0.779910000000     0.849900000000     0.0391063  
H272     H      0.993830000000     0.710350000000     0.594830000000     0.0446442  
H273     H      0.980210000000     0.625230000000     0.788170000000     0.0354696  
H274     H      0.995230000000     0.686980000000     0.849620000000     0.034989   
H275     H      0.982360000000     0.773570000000     0.871270000000     0.0448267  
H276     H      0.989020000000     0.603580000000     0.701740000000     0.0455044  
H277     H      0.989170000000     0.860320000000     0.677150000000     0.0355993  
H278     H      0.037020000000     0.864650000000     0.768070000000     0.0410384  
H279     H      0.976450000000     0.798260000000     0.615340000000     0.0357012  
H280     H      0.932010000000     0.705360000000     0.611940000000     0.0432679  
H281     H      0.000040000000     0.596780000000     0.264790000000     0.0468956  
H282     H      0.053870000000     0.849590000000     0.196360000000     0.0440017  
H283     H      0.933730000000     0.698180000000     0.348500000000     0.0392018  
H284     H      0.988870000000     0.767770000000     0.094630000000     0.0448783  
H285     H      0.000510000000     0.852170000000     0.288760000000     0.0373796  
H286     H      0.983200000000     0.790480000000     0.349690000000     0.0347308  
H287     H      0.993700000000     0.703730000000     0.371230000000     0.0456642  
H288     H      0.994230000000     0.874620000000     0.202500000000     0.0453814  
H289     H      0.988340000000     0.617760000000     0.176550000000     0.0353517  
H290     H      0.938340000000     0.614850000000     0.267180000000     0.0404336  
H291     H      0.003520000000     0.679790000000     0.115260000000     0.0374819  
H292     H      0.050190000000     0.772340000000     0.113640000000     0.0438007  
H293     H      0.990640000000     0.266200000000     0.379860000000     0.0446756  
H294     H      0.048360000000     0.200480000000     0.127000000000     0.0400542  
H295     H      0.923190000000     0.347150000000     0.279860000000     0.0407329  
H296     H      0.986490000000     0.096850000000     0.208400000000     0.0450341  
H297     H      0.991990000000     0.291500000000     0.123980000000     0.0354547  
H298     H      0.972820000000     0.351880000000     0.185670000000     0.0351539  
H299     H      0.981170000000     0.374140000000     0.271590000000     0.0451577  
H300     H      0.988770000000     0.205230000000     0.101500000000     0.0456185  
H301     H      0.982920000000     0.178630000000     0.358190000000     0.0353361  
H302     H      0.929680000000     0.269710000000     0.359140000000     0.0409131  
H303     H      0.000050000000     0.117840000000     0.296160000000     0.036329   
H304     H      0.047090000000     0.118120000000     0.203520000000     0.0386263  
N1       N      0.500950000000     0.329280000000     0.146500000000    -0.162954   
N2       N      0.483970000000     0.144800000000     0.329190000000    -0.162961   
N3       N      0.476000000000     0.827420000000     0.331180000000    -0.163405   
N4       N      0.501220000000     0.646430000000     0.147780000000    -0.163574   
N5       N      0.475350000000     0.828930000000     0.648490000000    -0.163527   
N6       N      0.504610000000     0.647450000000     0.830440000000    -0.163253   
N7       N      0.471320000000     0.146330000000     0.646280000000    -0.162888   
N8       N      0.490650000000     0.330050000000     0.829230000000    -0.16308    
N9       N      0.828860000000     0.328910000000     0.480450000000    -0.16336    
N10      N      0.645340000000     0.145700000000     0.498550000000    -0.162914   
N11      N      0.645440000000     0.827980000000     0.503400000000    -0.162988   
N12      N      0.828330000000     0.646340000000     0.474620000000    -0.163116   
N13      N      0.328050000000     0.145800000000     0.477730000000    -0.16294    
N14      N      0.146100000000     0.329260000000     0.501800000000    -0.163225   
N15      N      0.145940000000     0.645970000000     0.469350000000    -0.163124   
N16      N      0.327810000000     0.828110000000     0.496060000000    -0.163723   
N17      N      0.830360000000     0.467710000000     0.328500000000    -0.16364    
N18      N      0.649230000000     0.493790000000     0.145950000000    -0.163621   
N19      N      0.331610000000     0.501870000000     0.147720000000    -0.162988   
N20      N      0.147690000000     0.475770000000     0.328770000000    -0.162918   
N21      N      0.146030000000     0.483280000000     0.645960000000    -0.162986   
N22      N      0.329540000000     0.498080000000     0.830240000000    -0.162734   
N23      N      0.828780000000     0.503040000000     0.644900000000    -0.163158   
N24      N      0.646980000000     0.480120000000     0.828410000000    -0.163309   
N25      N      0.832770000000     0.828860000000     0.974450000000    -0.163018   
N26      N      0.650380000000     0.645380000000     0.995090000000    -0.164539   
N27      N      0.828510000000     0.145290000000     0.008000000000    -0.163503   
N28      N      0.646150000000     0.327590000000     0.981230000000    -0.163151   
N29      N      0.150220000000     0.832780000000     0.973780000000    -0.162788   
N30      N      0.332700000000     0.649670000000     0.999510000000    -0.16397    
N31      N      0.145210000000     0.150240000000     0.972030000000    -0.163249   
N32      N      0.328410000000     0.331930000000     0.996750000000    -0.164096   
N33      N      0.826320000000     0.998060000000     0.832150000000    -0.164265   
N34      N      0.642560000000     0.975440000000     0.650230000000    -0.163123   
N35      N      0.143420000000     0.011270000000     0.825940000000    -0.163625   
N36      N      0.324960000000     0.980700000000     0.644650000000    -0.163439   
N37      N      0.331900000000     0.971820000000     0.327140000000    -0.163224   
N38      N      0.150870000000     0.996340000000     0.143090000000    -0.164244   
N39      N      0.833330000000     0.993340000000     0.149210000000    -0.163322   
N40      N      0.648970000000     0.978900000000     0.332930000000    -0.16276    
N41      N      0.973020000000     0.151570000000     0.832000000000    -0.163159   
N42      N      0.998100000000     0.333340000000     0.649250000000    -0.164523   
N43      N      0.976960000000     0.650580000000     0.641330000000    -0.162964   
N44      N      0.995020000000     0.834300000000     0.824590000000    -0.163514   
N45      N      0.004810000000     0.827310000000     0.141960000000    -0.161904   
N46      N      0.981280000000     0.643280000000     0.323950000000    -0.163003   
N47      N      0.000410000000     0.144930000000     0.148930000000    -0.163166   
N48      N      0.974650000000     0.325660000000     0.332320000000    -0.163557   
O1       O      0.993290000000     0.125080000000     0.068830000000    -0.37848    
O2       O      0.996210000000     0.850060000000     0.062580000000    -0.376307   
O3       O      0.913220000000     0.988820000000     0.126650000000    -0.376423   
O4       O      0.070930000000     0.990170000000     0.122460000000    -0.376011   
O5       O      0.128670000000     0.992100000000     0.063150000000    -0.377636   
O6       O      0.853670000000     0.988180000000     0.069100000000    -0.377091   
O7       O      0.997200000000     0.907530000000     0.122180000000    -0.377261   
O8       O      0.993620000000     0.065420000000     0.126250000000    -0.374334   
O9       O      0.040150000000     0.940030000000     0.034100000000    -0.506476   
O10      O      0.940710000000     0.036660000000     0.038100000000    -0.506571   
O11      O      0.941490000000     0.938070000000     0.036560000000    -0.649342   
O12      O      0.038700000000     0.038360000000     0.035950000000    -0.649537   
O13      O      0.991730000000     0.854400000000     0.904880000000    -0.375279   
O14      O      0.981210000000     0.129170000000     0.911500000000    -0.377433   
O15      O      0.853230000000     0.908610000000     0.983890000000    -0.378652   
O16      O      0.128150000000     0.912640000000     0.980250000000    -0.3784     
O17      O      0.125010000000     0.070360000000     0.980780000000    -0.375104   
O18      O      0.850520000000     0.066050000000     0.996800000000    -0.374964   
O19      O      0.906610000000     0.992640000000     0.851970000000    -0.377203   
O20      O      0.064240000000     0.000450000000     0.848240000000    -0.375476   
O21      O      0.849270000000     0.992270000000     0.911700000000    -0.376922   
O22      O      0.124000000000     0.999040000000     0.905470000000    -0.376444   
O23      O      0.912520000000     0.850830000000     0.981220000000    -0.377329   
O24      O      0.908400000000     0.125240000000     0.998270000000    -0.377416   
O25      O      0.065780000000     0.128200000000     0.981770000000    -0.375949   
O26      O      0.070200000000     0.853480000000     0.980480000000    -0.37504    
O27      O      0.988980000000     0.913970000000     0.847390000000    -0.378118   
O28      O      0.981380000000     0.071610000000     0.852010000000    -0.37567    
O29      O      0.035970000000     0.040050000000     0.938380000000    -0.504922   
O30      O      0.939580000000     0.940770000000     0.938050000000    -0.507637   
O31      O      0.937880000000     0.039160000000     0.940490000000    -0.651745   
O32      O      0.037910000000     0.942520000000     0.935620000000    -0.650845   
O33      O      0.983990000000     0.348210000000     0.411620000000    -0.376703   
O34      O      0.985350000000     0.623050000000     0.404130000000    -0.375929   
O35      O      0.909750000000     0.478740000000     0.349510000000    -0.375042   
O36      O      0.067530000000     0.481950000000     0.349490000000    -0.378573   
O37      O      0.125690000000     0.482450000000     0.408400000000    -0.377519   
O38      O      0.851030000000     0.479560000000     0.407840000000    -0.375202   
O39      O      0.986380000000     0.563440000000     0.346670000000    -0.377912   
O40      O      0.983060000000     0.405630000000     0.352020000000    -0.375432   
O41      O      0.037020000000     0.535910000000     0.436410000000    -0.508324   
O42      O      0.939550000000     0.438420000000     0.439430000000    -0.50925    
O43      O      0.938510000000     0.535430000000     0.436000000000    -0.650104   
O44      O      0.037170000000     0.436950000000     0.438760000000    -0.648983   
O45      O      0.983890000000     0.627830000000     0.561740000000    -0.376819   
O46      O      0.990780000000     0.353050000000     0.569190000000    -0.378273   
O47      O      0.849850000000     0.566440000000     0.480960000000    -0.377922   
O48      O      0.124770000000     0.566530000000     0.479940000000    -0.378439   
O49      O      0.124850000000     0.409010000000     0.493200000000    -0.374257   
O50      O      0.850100000000     0.408890000000     0.485950000000    -0.37685    
O51      O      0.908510000000     0.494630000000     0.623770000000    -0.37712    
O52      O      0.066180000000     0.489160000000     0.624230000000    -0.375703   
O53      O      0.850000000000     0.494080000000     0.565230000000    -0.378365   
O54      O      0.124920000000     0.487620000000     0.565850000000    -0.376004   
O55      O      0.908300000000     0.625110000000     0.480900000000    -0.374745   
O56      O      0.908690000000     0.350380000000     0.487210000000    -0.377242   
O57      O      0.066320000000     0.350430000000     0.493510000000    -0.376501   
O58      O      0.066200000000     0.625050000000     0.478260000000    -0.377659   
O59      O      0.984130000000     0.570470000000     0.621460000000    -0.377186   
O60      O      0.990530000000     0.412830000000     0.626450000000    -0.376348   
O61      O      0.036050000000     0.440640000000     0.536560000000    -0.510663   
O62      O      0.938510000000     0.538080000000     0.534130000000    -0.51001    
O63      O      0.937790000000     0.439470000000     0.537650000000    -0.648447   
O64      O      0.036980000000     0.538790000000     0.534820000000    -0.647716   
O65      O      0.568680000000     0.983430000000     0.353210000000    -0.379061   
O66      O      0.562940000000     0.983450000000     0.628010000000    -0.37789    
O67      O      0.624170000000     0.065640000000     0.493380000000    -0.377508   
O68      O      0.624070000000     0.907760000000     0.495610000000    -0.374137   
O69      O      0.565580000000     0.849140000000     0.495180000000    -0.378283   
O70      O      0.565520000000     0.124170000000     0.491820000000    -0.378029   
O71      O      0.622250000000     0.982460000000     0.570250000000    -0.375008   
O72      O      0.626360000000     0.984410000000     0.412640000000    -0.377228   
O73      O      0.534670000000     0.938130000000     0.539000000000    -0.50712    
O74      O      0.537160000000     0.035810000000     0.440220000000    -0.507412   
O75      O      0.535090000000     0.036210000000     0.538910000000    -0.651007   
O76      O      0.537140000000     0.936660000000     0.440850000000    -0.651465   
O77      O      0.405150000000     0.985290000000     0.624430000000    -0.376856   
O78      O      0.411130000000     0.981320000000     0.349800000000    -0.374519   
O79      O      0.480030000000     0.124570000000     0.566720000000    -0.375613   
O80      O      0.482820000000     0.849870000000     0.568700000000    -0.376471   
O81      O      0.483360000000     0.848680000000     0.411000000000    -0.378667   
O82      O      0.487370000000     0.123570000000     0.409210000000    -0.376376   
O83      O      0.349150000000     0.065710000000     0.483450000000    -0.378686   
O84      O      0.349220000000     0.907930000000     0.489660000000    -0.37625    
O85      O      0.407840000000     0.124140000000     0.484360000000    -0.374994   
O86      O      0.407760000000     0.849370000000     0.491020000000    -0.376127   
O87      O      0.479780000000     0.066430000000     0.625650000000    -0.378403   
O88      O      0.487910000000     0.064750000000     0.350880000000    -0.377424   
O89      O      0.484480000000     0.907050000000     0.352340000000    -0.375635   
O90      O      0.481630000000     0.908750000000     0.626850000000    -0.375842   
O91      O      0.347490000000     0.986300000000     0.565050000000    -0.376964   
O92      O      0.351560000000     0.979990000000     0.407260000000    -0.376632   
O93      O      0.438960000000     0.937590000000     0.439590000000    -0.506278   
O94      O      0.436530000000     0.036180000000     0.536820000000    -0.505887   
O95      O      0.438600000000     0.035300000000     0.438410000000    -0.652369   
O96      O      0.436970000000     0.938250000000     0.537080000000    -0.654132   
O97      O      0.350580000000     0.411730000000     0.991320000000    -0.378057   
O98      O      0.625570000000     0.407740000000     0.986320000000    -0.377472   
O99      O      0.487450000000     0.351430000000     0.909260000000    -0.37639    
O100     O      0.493260000000     0.350950000000     0.066860000000    -0.376019   
O101     O      0.493600000000     0.409260000000     0.125610000000    -0.378712   
O102     O      0.487660000000     0.410110000000     0.850800000000    -0.376037   
O103     O      0.566320000000     0.349870000000     0.985860000000    -0.374989   
O104     O      0.408500000000     0.352500000000     0.991080000000    -0.379326   
O105     O      0.538340000000     0.438650000000     0.037070000000    -0.505215   
O106     O      0.439010000000     0.440100000000     0.939280000000    -0.506773   
O107     O      0.537100000000     0.439250000000     0.939120000000    -0.655007   
O108     O      0.439630000000     0.439930000000     0.038040000000    -0.651481   
O109     O      0.628270000000     0.565620000000     0.988790000000    -0.376932   
O110     O      0.353320000000     0.569610000000     0.992910000000    -0.374561   
O111     O      0.567150000000     0.485570000000     0.850310000000    -0.375371   
O112     O      0.569210000000     0.489580000000     0.124990000000    -0.376565   
O113     O      0.411370000000     0.493260000000     0.126270000000    -0.377732   
O114     O      0.409560000000     0.492550000000     0.851370000000    -0.378787   
O115     O      0.495790000000     0.626350000000     0.910110000000    -0.378741   
O116     O      0.494320000000     0.625690000000     0.067820000000    -0.375484   
O117     O      0.495480000000     0.567830000000     0.851590000000    -0.376915   
O118     O      0.493900000000     0.566830000000     0.126020000000    -0.376332   
O119     O      0.626150000000     0.485910000000     0.908410000000    -0.377423   
O120     O      0.351210000000     0.492570000000     0.910170000000    -0.377193   
O121     O      0.352690000000     0.494780000000     0.067900000000    -0.374327   
O122     O      0.627480000000     0.487850000000     0.066210000000    -0.377012   
O123     O      0.570290000000     0.624730000000     0.990670000000    -0.376682   
O124     O      0.412490000000     0.627560000000     0.992700000000    -0.377931   
O125     O      0.441560000000     0.538040000000     0.037680000000    -0.506588   
O126     O      0.538900000000     0.537290000000     0.939070000000    -0.505401   
O127     O      0.440430000000     0.539120000000     0.939520000000    -0.65196    
O128     O      0.539220000000     0.536580000000     0.036950000000    -0.654222   
Zr1      Zr     0.991280000000     0.987400000000     0.084660000000     1.42174    
Zr2      Zr     0.990730000000     0.891950000000     0.984820000000     1.42008    
Zr3      Zr     0.987710000000     0.087330000000     0.989210000000     1.42835    
Zr4      Zr     0.891470000000     0.987990000000     0.989380000000     1.42353    
Zr5      Zr     0.086850000000     0.990910000000     0.985020000000     1.42539    
Zr6      Zr     0.986540000000     0.991850000000     0.889530000000     1.42591    
Zr7      Zr     0.988380000000     0.485500000000     0.388990000000     1.42713    
Zr8      Zr     0.987390000000     0.585550000000     0.483990000000     1.42286    
Zr9      Zr     0.987510000000     0.390240000000     0.489320000000     1.42912    
Zr10     Zr     0.889920000000     0.487760000000     0.486640000000     1.42903    
Zr11     Zr     0.085300000000     0.487850000000     0.486800000000     1.42521    
Zr12     Zr     0.987360000000     0.490520000000     0.584210000000     1.42435    
Zr13     Zr     0.584450000000     0.986630000000     0.490620000000     1.42115    
Zr14     Zr     0.484850000000     0.987350000000     0.586540000000     1.42812    
Zr15     Zr     0.488950000000     0.986010000000     0.391360000000     1.42425    
Zr16     Zr     0.486680000000     0.084270000000     0.488310000000     1.4231     
Zr17     Zr     0.486750000000     0.888920000000     0.489620000000     1.43095    
Zr18     Zr     0.389010000000     0.986760000000     0.487010000000     1.42933    
Zr19     Zr     0.487980000000     0.391000000000     0.988310000000     1.42402    
Zr20     Zr     0.587100000000     0.487300000000     0.987630000000     1.42994    
Zr21     Zr     0.391700000000     0.490070000000     0.988860000000     1.42121    
Zr22     Zr     0.488610000000     0.489010000000     0.890800000000     1.42537    
Zr23     Zr     0.490040000000     0.488230000000     0.086000000000     1.42943    
Zr24     Zr     0.490790000000     0.586400000000     0.988710000000     1.42781    


