data_structure

_audit_creation_method RASPA-1.0
_audit_creation_date 2023-6-4
_audit_author_name 'Poobodin Mano'

_cell_length_a    29.2177
_cell_length_b    32.0672
_cell_length_c    23.9657
_cell_angle_alpha 89.9989
_cell_angle_beta  89.9989
_cell_angle_gamma 95.5098
_cell_volume      22350.4

_symmetry_cell_setting          triclinic
_symmetry_space_group_name_Hall 'P 1'
_symmetry_space_group_name_H-M  'P 1'
_symmetry_Int_Tables_number     1

_symmetry_equiv_pos_as_xyz 'x,y,z'

loop_
_atom_site_label
_atom_site_type_symbol
_atom_site_fract_x
_atom_site_fract_y
_atom_site_fract_z
_atom_site_charge
C1       C      0.192790000000     0.516980000000     0.072660000000     0.413617   
C2       C      0.538940000000     0.077400000000     0.140740000000     0.413437   
C3       C      0.142080000000     0.120720000000     0.062730000000     0.414066   
C4       C      0.588510000000     0.472270000000     0.151440000000     0.415109   
C5       C      0.584450000000     0.130560000000     0.454060000000     0.414934   
C6       C      0.136870000000     0.479860000000     0.497720000000     0.415139   
C7       C      0.533780000000     0.518870000000     0.428030000000     0.41386    
C8       C      0.187050000000     0.088850000000     0.522250000000     0.413523   
C9       C      0.387900000000     0.317900000000     0.952490000000     0.559501   
C10      C      0.323130000000     0.276540000000     0.142360000000     0.559567   
C11      C      0.416930000000     0.248730000000     0.063390000000     0.555023   
C12      C      0.291090000000     0.344220000000     0.031820000000     0.558548   
C13      C      0.326900000000     0.273380000000     0.451880000000     0.557631   
C14      C      0.383370000000     0.320450000000     0.643120000000     0.558773   
C15      C      0.409090000000     0.239500000000     0.548560000000     0.559728   
C16      C      0.300270000000     0.352780000000     0.544080000000     0.561034   
C17      C      0.382360000000     0.310430000000     0.745170000000     0.0300505  
C18      C      0.403640000000     0.331460000000     0.797780000000    -0.120577   
C19      C      0.386920000000     0.307390000000     0.850400000000     0.0298081  
C20      C      0.330670000000     0.281600000000     0.349690000000     0.0305897  
C21      C      0.307300000000     0.262450000000     0.297130000000    -0.121185   
C22      C      0.326490000000     0.285140000000     0.244590000000     0.0304026  
C23      C      0.277080000000     0.419980000000     0.508250000000     0.0284344  
C24      C      0.236600000000     0.446880000000     0.513260000000    -0.112323   
C25      C      0.192470000000     0.426910000000     0.484820000000     0.0222504  
C26      C      0.457770000000     0.477270000000     0.435600000000     0.0103403  
C27      C      0.469180000000     0.432630000000     0.448880000000    -0.084269   
C28      C      0.429270000000     0.406090000000     0.476720000000    -0.0448232  
C29      C      0.556920000000     0.197030000000     0.487290000000     0.0229799  
C30      C      0.504720000000     0.188990000000     0.495230000000    -0.111727   
C31      C      0.488420000000     0.217930000000     0.540560000000     0.0263869  
C32      C      0.233040000000     0.111950000000     0.606080000000     0.0096115  
C33      C      0.230630000000     0.158440000000     0.619250000000    -0.0796477  
C34      C      0.271010000000     0.186140000000     0.593950000000    -0.0489589  
C35      C      0.238850000000     0.485220000000     0.999530000000     0.0213905  
C36      C      0.228100000000     0.437430000000     0.999380000000    -0.110765   
C37      C      0.263390000000     0.414980000000     0.032740000000     0.0288093  
C38      C      0.549310000000     0.400380000000     0.143490000000     0.0130435  
C39      C      0.498400000000     0.408010000000     0.141040000000    -0.0823768  
C40      C      0.469870000000     0.371690000000     0.112520000000    -0.0510323  
C41      C      0.442460000000     0.177280000000     0.073450000000     0.0259142  
C42      C      0.477410000000     0.158090000000     0.111160000000    -0.112601   
C43      C      0.467490000000     0.110500000000     0.118360000000     0.0182584  
C44      C      0.254280000000     0.192030000000     0.022290000000    -0.0440274  
C45      C      0.214140000000     0.218170000000     0.034800000000    -0.0722252  
C46      C      0.177610000000     0.194080000000     0.071290000000     0.00615636 
C47      C      0.192790000000     0.016990000000     0.072660000000     0.413376   
C48      C      0.538940000000     0.577400000000     0.140740000000     0.413729   
C49      C      0.142080000000     0.620720000000     0.062730000000     0.414261   
C50      C      0.588510000000     0.972270000000     0.151440000000     0.414986   
C51      C      0.584450000000     0.630560000000     0.454060000000     0.414918   
C52      C      0.136870000000     0.979860000000     0.497720000000     0.414966   
C53      C      0.533780000000     0.018870000000     0.428030000000     0.412548   
C54      C      0.187050000000     0.588850000000     0.522250000000     0.413712   
C55      C      0.387900000000     0.817890000000     0.952490000000     0.559465   
C56      C      0.323130000000     0.776540000000     0.142360000000     0.559525   
C57      C      0.416930000000     0.748730000000     0.063390000000     0.554906   
C58      C      0.291090000000     0.844220000000     0.031820000000     0.558544   
C59      C      0.326900000000     0.773380000000     0.451880000000     0.557394   
C60      C      0.383370000000     0.820450000000     0.643120000000     0.558838   
C61      C      0.409090000000     0.739500000000     0.548560000000     0.559586   
C62      C      0.300270000000     0.852780000000     0.544080000000     0.560973   
C63      C      0.382360000000     0.810430000000     0.745170000000     0.0300741  
C64      C      0.403640000000     0.831460000000     0.797780000000    -0.120591   
C65      C      0.386910000000     0.807390000000     0.850400000000     0.0298174  
C66      C      0.330670000000     0.781600000000     0.349690000000     0.0305774  
C67      C      0.307300000000     0.762450000000     0.297130000000    -0.121183   
C68      C      0.326490000000     0.785140000000     0.244590000000     0.0303959  
C69      C      0.277080000000     0.919980000000     0.508250000000     0.0284642  
C70      C      0.236600000000     0.946880000000     0.513260000000    -0.11237    
C71      C      0.192470000000     0.926910000000     0.484820000000     0.022297   
C72      C      0.457780000000     0.977270000000     0.435600000000     0.0104343  
C73      C      0.469180000000     0.932640000000     0.448880000000    -0.0842702  
C74      C      0.429270000000     0.906080000000     0.476720000000    -0.0447335  
C75      C      0.556920000000     0.697030000000     0.487290000000     0.0229841  
C76      C      0.504720000000     0.688990000000     0.495230000000    -0.11173    
C77      C      0.488420000000     0.717930000000     0.540560000000     0.0263916  
C78      C      0.233040000000     0.611950000000     0.606080000000     0.00961419 
C79      C      0.230630000000     0.658440000000     0.619250000000    -0.0796563  
C80      C      0.271010000000     0.686140000000     0.593950000000    -0.0489057  
C81      C      0.238850000000     0.985220000000     0.999530000000     0.0224292  
C82      C      0.228100000000     0.937430000000     0.999380000000    -0.110931   
C83      C      0.263390000000     0.914980000000     0.032740000000     0.0288919  
C84      C      0.549310000000     0.900380000000     0.143490000000     0.013093   
C85      C      0.498400000000     0.908010000000     0.141040000000    -0.0824719  
C86      C      0.469870000000     0.871680000000     0.112520000000    -0.0509257  
C87      C      0.442460000000     0.677280000000     0.073450000000     0.025874   
C88      C      0.477410000000     0.658090000000     0.111160000000    -0.112517   
C89      C      0.467490000000     0.610500000000     0.118360000000     0.0182266  
C90      C      0.254280000000     0.692030000000     0.022290000000    -0.0440672  
C91      C      0.214140000000     0.718170000000     0.034800000000    -0.0722105  
C92      C      0.177610000000     0.694080000000     0.071290000000     0.00616232 
C93      C      0.692790000000     0.516980000000     0.072660000000     0.413615   
C94      C      0.038940000000     0.077400000000     0.140740000000     0.413438   
C95      C      0.642080000000     0.120720000000     0.062730000000     0.414065   
C96      C      0.088510000000     0.472270000000     0.151440000000     0.415118   
C97      C      0.084450000000     0.130560000000     0.454060000000     0.414883   
C98      C      0.636870000000     0.479860000000     0.497720000000     0.415138   
C99      C      0.033780000000     0.518870000000     0.428030000000     0.414027   
C100     C      0.687050000000     0.088850000000     0.522250000000     0.413644   
C101     C      0.887900000000     0.317900000000     0.952490000000     0.559399   
C102     C      0.823130000000     0.276540000000     0.142360000000     0.559511   
C103     C      0.916940000000     0.248730000000     0.063390000000     0.554834   
C104     C      0.791090000000     0.344220000000     0.031820000000     0.55852    
C105     C      0.826900000000     0.273380000000     0.451880000000     0.55759    
C106     C      0.883370000000     0.320450000000     0.643120000000     0.558703   
C107     C      0.909090000000     0.239500000000     0.548560000000     0.559623   
C108     C      0.800270000000     0.352780000000     0.544080000000     0.561018   
C109     C      0.882360000000     0.310430000000     0.745170000000     0.0300328  
C110     C      0.903640000000     0.331460000000     0.797780000000    -0.120536   
C111     C      0.886910000000     0.307390000000     0.850400000000     0.0297583  
C112     C      0.830670000000     0.281600000000     0.349690000000     0.0305871  
C113     C      0.807300000000     0.262450000000     0.297130000000    -0.121182   
C114     C      0.826490000000     0.285140000000     0.244590000000     0.0303968  
C115     C      0.777080000000     0.419980000000     0.508250000000     0.0284331  
C116     C      0.736600000000     0.446880000000     0.513260000000    -0.112323   
C117     C      0.692470000000     0.426910000000     0.484820000000     0.0222497  
C118     C      0.957780000000     0.477270000000     0.435600000000     0.010425   
C119     C      0.969180000000     0.432630000000     0.448880000000    -0.0843249  
C120     C      0.929270000000     0.406090000000     0.476720000000    -0.044753   
C121     C      0.056920000000     0.197030000000     0.487290000000     0.0229156  
C122     C      0.004720000000     0.188990000000     0.495230000000    -0.11151    
C123     C      0.988420000000     0.217930000000     0.540560000000     0.0262285  
C124     C      0.733040000000     0.111950000000     0.606080000000     0.0096197  
C125     C      0.730630000000     0.158440000000     0.619250000000    -0.0796495  
C126     C      0.771010000000     0.186140000000     0.593950000000    -0.0489598  
C127     C      0.738850000000     0.485220000000     0.999530000000     0.0214026  
C128     C      0.728100000000     0.437430000000     0.999380000000    -0.110768   
C129     C      0.763390000000     0.414980000000     0.032740000000     0.0288076  
C130     C      0.049310000000     0.400380000000     0.143490000000     0.0131027  
C131     C      0.998400000000     0.408010000000     0.141040000000    -0.0824787  
C132     C      0.969870000000     0.371690000000     0.112520000000    -0.0509029  
C133     C      0.942460000000     0.177280000000     0.073450000000     0.0259242  
C134     C      0.977410000000     0.158090000000     0.111160000000    -0.112605   
C135     C      0.967490000000     0.110500000000     0.118360000000     0.0182186  
C136     C      0.754290000000     0.192030000000     0.022290000000    -0.0440498  
C137     C      0.714140000000     0.218170000000     0.034800000000    -0.0722242  
C138     C      0.677610000000     0.194080000000     0.071290000000     0.00615506 
C139     C      0.692790000000     0.016990000000     0.072660000000     0.413383   
C140     C      0.038940000000     0.577400000000     0.140740000000     0.413618   
C141     C      0.642080000000     0.620720000000     0.062730000000     0.414257   
C142     C      0.088510000000     0.972270000000     0.151440000000     0.414987   
C143     C      0.084450000000     0.630560000000     0.454060000000     0.414919   
C144     C      0.636870000000     0.979860000000     0.497720000000     0.415017   
C145     C      0.033780000000     0.018870000000     0.428030000000     0.412593   
C146     C      0.687050000000     0.588850000000     0.522250000000     0.413714   
C147     C      0.887900000000     0.817890000000     0.952490000000     0.559463   
C148     C      0.823130000000     0.776540000000     0.142360000000     0.559525   
C149     C      0.916930000000     0.748730000000     0.063390000000     0.554904   
C150     C      0.791090000000     0.844220000000     0.031820000000     0.558543   
C151     C      0.826900000000     0.773380000000     0.451880000000     0.557391   
C152     C      0.883370000000     0.820450000000     0.643120000000     0.558824   
C153     C      0.909090000000     0.739500000000     0.548560000000     0.559577   
C154     C      0.800270000000     0.852780000000     0.544080000000     0.560969   
C155     C      0.882360000000     0.810430000000     0.745170000000     0.0300641  
C156     C      0.903640000000     0.831460000000     0.797780000000    -0.120585   
C157     C      0.886910000000     0.807390000000     0.850400000000     0.0298141  
C158     C      0.830670000000     0.781600000000     0.349690000000     0.0305777  
C159     C      0.807300000000     0.762450000000     0.297130000000    -0.121184   
C160     C      0.826490000000     0.785140000000     0.244590000000     0.0303963  
C161     C      0.777080000000     0.919980000000     0.508250000000     0.028459   
C162     C      0.736600000000     0.946880000000     0.513260000000    -0.112357   
C163     C      0.692470000000     0.926910000000     0.484820000000     0.0222503  
C164     C      0.957780000000     0.977270000000     0.435600000000     0.0104313  
C165     C      0.969180000000     0.932640000000     0.448880000000    -0.0842684  
C166     C      0.929270000000     0.906080000000     0.476720000000    -0.044736   
C167     C      0.056920000000     0.697030000000     0.487290000000     0.0229302  
C168     C      0.004720000000     0.688990000000     0.495230000000    -0.111532   
C169     C      0.988420000000     0.717930000000     0.540560000000     0.0262483  
C170     C      0.733050000000     0.611950000000     0.606080000000     0.00960482 
C171     C      0.730630000000     0.658440000000     0.619250000000    -0.0796626  
C172     C      0.771010000000     0.686140000000     0.593950000000    -0.0488653  
C173     C      0.738850000000     0.985220000000     0.999530000000     0.022441   
C174     C      0.728100000000     0.937430000000     0.999380000000    -0.110935   
C175     C      0.763390000000     0.914980000000     0.032740000000     0.0288933  
C176     C      0.049310000000     0.900380000000     0.143490000000     0.0131365  
C177     C      0.998400000000     0.908010000000     0.141040000000    -0.0825031  
C178     C      0.969870000000     0.871680000000     0.112520000000    -0.0509286  
C179     C      0.942460000000     0.677280000000     0.073450000000     0.0258839  
C180     C      0.977410000000     0.658090000000     0.111160000000    -0.112569   
C181     C      0.967490000000     0.610500000000     0.118360000000     0.0182048  
C182     C      0.754280000000     0.692030000000     0.022290000000    -0.0440672  
C183     C      0.714140000000     0.718170000000     0.034800000000    -0.0722102  
C184     C      0.677610000000     0.694080000000     0.071290000000     0.00616181 
Cu1      Cu     0.596730000000     0.035550000000     0.062350000000     0.843185   
Cu2      Cu     0.134310000000     0.557370000000     0.151700000000     0.848366   
Cu3      Cu     0.129850000000     0.555040000000     0.429510000000     0.84873    
Cu4      Cu     0.590150000000     0.054520000000     0.520860000000     0.84238    
Cu5      Cu     0.383470000000     0.331510000000     0.071010000000     1.98096    
Cu6      Cu     0.325820000000     0.262590000000     0.022850000000     1.93955    
Cu7      Cu     0.390120000000     0.325690000000     0.522540000000     1.95622    
Cu8      Cu     0.320270000000     0.267730000000     0.572810000000     1.97696    
Cu9      Cu     0.596730000000     0.535550000000     0.062350000000     0.844556   
Cu10     Cu     0.134310000000     0.057370000000     0.151700000000     0.847224   
Cu11     Cu     0.129850000000     0.055050000000     0.429510000000     0.847442   
Cu12     Cu     0.590150000000     0.554520000000     0.520860000000     0.843821   
Cu13     Cu     0.383460000000     0.831510000000     0.071010000000     1.97925    
Cu14     Cu     0.325820000000     0.762590000000     0.022850000000     1.93987    
Cu15     Cu     0.390110000000     0.825690000000     0.522540000000     1.95453    
Cu16     Cu     0.320270000000     0.767730000000     0.572810000000     1.97612    
Cu17     Cu     0.096730000000     0.035550000000     0.062350000000     0.843197   
Cu18     Cu     0.634310000000     0.557370000000     0.151700000000     0.848295   
Cu19     Cu     0.629850000000     0.555040000000     0.429510000000     0.848788   
Cu20     Cu     0.090150000000     0.054520000000     0.520860000000     0.842414   
Cu21     Cu     0.883460000000     0.331510000000     0.071010000000     1.97923    
Cu22     Cu     0.825820000000     0.262590000000     0.022850000000     1.93976    
Cu23     Cu     0.890110000000     0.325690000000     0.522540000000     1.95511    
Cu24     Cu     0.820270000000     0.267730000000     0.572810000000     1.97702    
Cu25     Cu     0.096730000000     0.535550000000     0.062350000000     0.844552   
Cu26     Cu     0.634310000000     0.057370000000     0.151700000000     0.847224   
Cu27     Cu     0.629850000000     0.055050000000     0.429510000000     0.847462   
Cu28     Cu     0.090150000000     0.554520000000     0.520860000000     0.843855   
Cu29     Cu     0.883460000000     0.831510000000     0.071010000000     1.97925    
Cu30     Cu     0.825820000000     0.762590000000     0.022850000000     1.93987    
Cu31     Cu     0.890110000000     0.825690000000     0.522540000000     1.95453    
Cu32     Cu     0.820270000000     0.767730000000     0.572810000000     1.97606    
H1       H      0.344230000000     0.309570000000     0.747060000000     0.0315188  
H2       H      0.390940000000     0.277400000000     0.742910000000     0.029305   
H3       H      0.429210000000     0.354650000000     0.897810000000     0.104547   
H4       H      0.441750000000     0.332590000000     0.795350000000     0.0544376  
H5       H      0.393800000000     0.364070000000     0.800200000000     0.0558561  
H6       H      0.398770000000     0.275450000000     0.849760000000     0.0286209  
H7       H      0.348640000000     0.303540000000     0.851300000000     0.0316225  
H8       H      0.424610000000     0.357630000000     0.697460000000     0.104378   
H9       H      0.326730000000     0.315750000000     0.351400000000     0.0290534  
H10      H      0.368190000000     0.278160000000     0.348250000000     0.0307104  
H11      H      0.281620000000     0.239900000000     0.196950000000     0.10325    
H12      H      0.313300000000     0.228770000000     0.294720000000     0.055981   
H13      H      0.269640000000     0.264920000000     0.299530000000     0.0552669  
H14      H      0.364630000000     0.285530000000     0.243730000000     0.0301889  
H15      H      0.318340000000     0.318310000000     0.245220000000     0.0293035  
H16      H      0.283010000000     0.238870000000     0.397530000000     0.105395   
H17      H      0.309000000000     0.438360000000     0.523010000000     0.028928   
H18      H      0.282850000000     0.411960000000     0.463800000000     0.0277301  
H19      H      0.140020000000     0.427580000000     0.547730000000     0.098854   
H20      H      0.230210000000     0.452250000000     0.558360000000     0.0575999  
H21      H      0.246390000000     0.478030000000     0.494050000000     0.0561544  
H22      H      0.189500000000     0.392300000000     0.489600000000     0.0264237  
H23      H      0.193740000000     0.434350000000     0.439480000000     0.0358839  
H24      H      0.237780000000     0.374600000000     0.561870000000     0.10563    
H25      H      0.451740000000     0.494210000000     0.475020000000     0.0378037  
H26      H      0.426100000000     0.475580000000     0.409650000000     0.0254343  
H27      H      0.417450000000     0.347950000000     0.503060000000    -0.586067   
H28      H      0.478170000000     0.417030000000     0.409430000000     0.0493154  
H29      H      0.499700000000     0.434240000000     0.476850000000     0.0555137  
H30      H      0.398660000000     0.404060000000     0.448890000000     0.0454102  
H31      H      0.420620000000     0.420500000000     0.517130000000     0.0451038  
H32      H      0.496220000000     0.493560000000     0.360730000000     0.100739   
H33      H      0.574460000000     0.191550000000     0.527510000000     0.0325062  
H34      H      0.565520000000     0.230280000000     0.474860000000     0.0225482  
H35      H      0.426520000000     0.179270000000     0.562930000000     0.103748   
H36      H      0.487120000000     0.194920000000     0.455270000000     0.0596969  
H37      H      0.495630000000     0.155780000000     0.507460000000     0.0647089  
H38      H      0.498130000000     0.251160000000     0.528840000000     0.0367814  
H39      H      0.506330000000     0.211590000000     0.580170000000     0.0231821  
H40      H      0.580770000000     0.183240000000     0.404680000000     0.0998278  
H41      H      0.206120000000     0.093120000000     0.630560000000     0.0369415  
H42      H      0.267120000000     0.102740000000     0.619410000000     0.0245435  
H43      H      0.292680000000     0.246030000000     0.592660000000    -0.59495    
H44      H      0.197630000000     0.168490000000     0.603400000000     0.053232   
H45      H      0.231140000000     0.162460000000     0.665350000000     0.0430529  
H46      H      0.269720000000     0.184110000000     0.547640000000     0.0507195  
H47      H      0.303970000000     0.175470000000     0.608930000000     0.047468   
H48      H      0.256280000000     0.110080000000     0.520680000000     0.0986777  
H49      H      0.216020000000     0.498910000000     0.968770000000     0.0342538  
H50      H      0.275000000000     0.493220000000     0.985880000000     0.0227452  
H51      H      0.225830000000     0.356240000000     0.006890000000     0.103262   
H52      H      0.193030000000     0.428930000000     0.016380000000     0.0606047  
H53      H      0.228410000000     0.426590000000     0.955310000000     0.0513148  
H54      H      0.259130000000     0.420910000000     0.078050000000     0.0318078  
H55      H      0.298910000000     0.427590000000     0.021000000000     0.0344917  
H56      H      0.261000000000     0.505260000000     0.082080000000     0.0997453  
H57      H      0.562990000000     0.398490000000     0.100310000000     0.0348144  
H58      H      0.552860000000     0.370200000000     0.165220000000     0.0236362  
H59      H      0.405330000000     0.357900000000     0.090950000000    -0.598166   
H60      H      0.485270000000     0.411680000000     0.184170000000     0.0493551  
H61      H      0.494510000000     0.437400000000     0.117640000000     0.0592809  
H62      H      0.471490000000     0.342740000000     0.137740000000     0.0466132  
H63      H      0.483650000000     0.366670000000     0.070000000000     0.0468739  
H64      H      0.584500000000     0.428480000000     0.215450000000     0.10036    
H65      H      0.406840000000     0.166850000000     0.087330000000     0.0332815  
H66      H      0.446260000000     0.166350000000     0.029840000000     0.0288419  
H67      H      0.499820000000     0.106110000000     0.198600000000     0.100078   
H68      H      0.512440000000     0.165140000000     0.093290000000     0.0578352  
H69      H      0.476870000000     0.173090000000     0.153000000000     0.0551195  
H70      H      0.468480000000     0.094770000000     0.077090000000     0.0371197  
H71      H      0.432610000000     0.103780000000     0.136690000000     0.0254206  
H72      H      0.482160000000     0.237170000000     0.088320000000     0.102734   
H73      H      0.240960000000     0.161880000000     0.002730000000     0.0426007  
H74      H      0.272330000000     0.184550000000     0.061380000000     0.0496299  
H75      H      0.144290000000     0.164300000000     0.998980000000     0.0986419  
H76      H      0.226950000000     0.247180000000     0.057240000000     0.054365   
H77      H      0.198320000000     0.227570000000     0.995080000000     0.0455445  
H78      H      0.151800000000     0.215830000000     0.083030000000     0.0276047  
H79      H      0.193540000000     0.183680000000     0.110430000000     0.0404612  
H80      H      0.303710000000     0.236000000000     0.003380000000    -0.579744   
H81      H      0.344230000000     0.809570000000     0.747060000000     0.0315584  
H82      H      0.390940000000     0.777400000000     0.742910000000     0.0293421  
H83      H      0.429210000000     0.854650000000     0.897810000000     0.104603   
H84      H      0.441750000000     0.832590000000     0.795350000000     0.0545181  
H85      H      0.393800000000     0.864070000000     0.800200000000     0.0559741  
H86      H      0.398770000000     0.775450000000     0.849760000000     0.0286722  
H87      H      0.348640000000     0.803540000000     0.851300000000     0.0316623  
H88      H      0.424610000000     0.857630000000     0.697460000000     0.104479   
H89      H      0.326730000000     0.815750000000     0.351400000000     0.0290919  
H90      H      0.368190000000     0.778170000000     0.348250000000     0.0307419  
H91      H      0.281620000000     0.739900000000     0.196950000000     0.103275   
H92      H      0.313300000000     0.728770000000     0.294720000000     0.0560268  
H93      H      0.269640000000     0.764910000000     0.299530000000     0.0552943  
H94      H      0.364630000000     0.785530000000     0.243730000000     0.030217   
H95      H      0.318340000000     0.818310000000     0.245220000000     0.0293586  
H96      H      0.283010000000     0.738870000000     0.397530000000     0.105419   
H97      H      0.309000000000     0.938360000000     0.523010000000     0.0290866  
H98      H      0.282850000000     0.911960000000     0.463800000000     0.027804   
H99      H      0.140020000000     0.927580000000     0.547730000000     0.0989573  
H100     H      0.230210000000     0.952250000000     0.558360000000     0.0578171  
H101     H      0.246390000000     0.978030000000     0.494050000000     0.0564762  
H102     H      0.189500000000     0.892300000000     0.489600000000     0.0264429  
H103     H      0.193740000000     0.934350000000     0.439480000000     0.0360024  
H104     H      0.237780000000     0.874600000000     0.561870000000     0.105674   
H105     H      0.451740000000     0.994210000000     0.475020000000     0.0382097  
H106     H      0.426100000000     0.975580000000     0.409650000000     0.0256318  
H107     H      0.417450000000     0.847960000000     0.503060000000    -0.585113   
H108     H      0.478170000000     0.917030000000     0.409430000000     0.0493945  
H109     H      0.499700000000     0.934240000000     0.476850000000     0.0557183  
H110     H      0.398650000000     0.904060000000     0.448890000000     0.0454374  
H111     H      0.420620000000     0.920500000000     0.517130000000     0.045204   
H112     H      0.496220000000     0.993560000000     0.360730000000     0.101054   
H113     H      0.574450000000     0.691550000000     0.527510000000     0.0325254  
H114     H      0.565520000000     0.730280000000     0.474860000000     0.0225632  
H115     H      0.426520000000     0.679270000000     0.562930000000     0.103849   
H116     H      0.487120000000     0.694920000000     0.455270000000     0.0597519  
H117     H      0.495620000000     0.655780000000     0.507460000000     0.0648076  
H118     H      0.498130000000     0.751160000000     0.528840000000     0.0368011  
H119     H      0.506330000000     0.711590000000     0.580170000000     0.0232362  
H120     H      0.580770000000     0.683240000000     0.404680000000     0.0998613  
H121     H      0.206120000000     0.593120000000     0.630560000000     0.0371658  
H122     H      0.267120000000     0.602740000000     0.619410000000     0.0247648  
H123     H      0.292680000000     0.746020000000     0.592660000000    -0.594504   
H124     H      0.197630000000     0.668490000000     0.603400000000     0.0532589  
H125     H      0.231140000000     0.662460000000     0.665350000000     0.043145   
H126     H      0.269720000000     0.684110000000     0.547640000000     0.0507419  
H127     H      0.303970000000     0.675460000000     0.608930000000     0.047526   
H128     H      0.256280000000     0.610080000000     0.520680000000     0.0988398  
H129     H      0.216020000000     0.998910000000     0.968770000000     0.03456    
H130     H      0.275000000000     0.993220000000     0.985880000000     0.0229486  
H131     H      0.225830000000     0.856240000000     0.006890000000     0.103309   
H132     H      0.193030000000     0.928930000000     0.016380000000     0.0608846  
H133     H      0.228410000000     0.926590000000     0.955310000000     0.0514713  
H134     H      0.259130000000     0.920910000000     0.078050000000     0.0320327  
H135     H      0.298910000000     0.927590000000     0.021000000000     0.0346486  
H136     H      0.261000000000     0.005260000000     0.082080000000     0.0993041  
H137     H      0.562980000000     0.898490000000     0.100310000000     0.0348962  
H138     H      0.552860000000     0.870200000000     0.165220000000     0.02366    
H139     H      0.405340000000     0.857900000000     0.090950000000    -0.597272   
H140     H      0.485280000000     0.911680000000     0.184170000000     0.049515   
H141     H      0.494510000000     0.937400000000     0.117640000000     0.0595325  
H142     H      0.471500000000     0.842740000000     0.137740000000     0.0466261  
H143     H      0.483650000000     0.866670000000     0.070000000000     0.0469372  
H144     H      0.584490000000     0.928480000000     0.215450000000     0.100514   
H145     H      0.406840000000     0.666850000000     0.087330000000     0.033359   
H146     H      0.446260000000     0.666350000000     0.029840000000     0.0289355  
H147     H      0.499820000000     0.606110000000     0.198600000000     0.100223   
H148     H      0.512450000000     0.665140000000     0.093290000000     0.0578082  
H149     H      0.476880000000     0.673090000000     0.153000000000     0.0551273  
H150     H      0.468490000000     0.594770000000     0.077090000000     0.0373048  
H151     H      0.432610000000     0.603780000000     0.136690000000     0.0256099  
H152     H      0.482160000000     0.737170000000     0.088320000000     0.102742   
H153     H      0.240960000000     0.661880000000     0.002730000000     0.0427065  
H154     H      0.272330000000     0.684560000000     0.061380000000     0.0496898  
H155     H      0.144290000000     0.664300000000     0.998980000000     0.0987199  
H156     H      0.226950000000     0.747180000000     0.057240000000     0.0543684  
H157     H      0.198320000000     0.727570000000     0.995080000000     0.0455749  
H158     H      0.151800000000     0.715830000000     0.083030000000     0.0276177  
H159     H      0.193540000000     0.683680000000     0.110430000000     0.0404811  
H160     H      0.303710000000     0.736000000000     0.003380000000    -0.579855   
H161     H      0.844230000000     0.309570000000     0.747060000000     0.0315214  
H162     H      0.890940000000     0.277400000000     0.742910000000     0.0293069  
H163     H      0.929210000000     0.354650000000     0.897810000000     0.104536   
H164     H      0.941750000000     0.332590000000     0.795350000000     0.0544252  
H165     H      0.893790000000     0.364070000000     0.800200000000     0.0558391  
H166     H      0.898770000000     0.275450000000     0.849760000000     0.028634   
H167     H      0.848640000000     0.303540000000     0.851300000000     0.0316303  
H168     H      0.924610000000     0.357630000000     0.697460000000     0.104371   
H169     H      0.826720000000     0.315750000000     0.351400000000     0.0290548  
H170     H      0.868190000000     0.278160000000     0.348250000000     0.0307136  
H171     H      0.781620000000     0.239900000000     0.196950000000     0.103249   
H172     H      0.813300000000     0.228770000000     0.294720000000     0.0559804  
H173     H      0.769640000000     0.264920000000     0.299530000000     0.0552645  
H174     H      0.864630000000     0.285530000000     0.243730000000     0.0301921  
H175     H      0.818340000000     0.318310000000     0.245220000000     0.0293035  
H176     H      0.783010000000     0.238870000000     0.397530000000     0.105393   
H177     H      0.809000000000     0.438360000000     0.523010000000     0.0289288  
H178     H      0.782850000000     0.411960000000     0.463800000000     0.0277306  
H179     H      0.640020000000     0.427580000000     0.547730000000     0.0988467  
H180     H      0.730210000000     0.452250000000     0.558360000000     0.0575983  
H181     H      0.746390000000     0.478030000000     0.494050000000     0.0561537  
H182     H      0.689500000000     0.392300000000     0.489600000000     0.0264204  
H183     H      0.693740000000     0.434350000000     0.439480000000     0.035882   
H184     H      0.737780000000     0.374600000000     0.561870000000     0.105627   
H185     H      0.951740000000     0.494210000000     0.475020000000     0.0377696  
H186     H      0.926100000000     0.475580000000     0.409650000000     0.0254099  
H187     H      0.917450000000     0.347950000000     0.503060000000    -0.585476   
H188     H      0.978170000000     0.417030000000     0.409430000000     0.0493244  
H189     H      0.999700000000     0.434240000000     0.476850000000     0.0555146  
H190     H      0.898650000000     0.404060000000     0.448890000000     0.0453868  
H191     H      0.920620000000     0.420500000000     0.517130000000     0.0450883  
H192     H      0.996220000000     0.493560000000     0.360730000000     0.100736   
H193     H      0.074450000000     0.191550000000     0.527510000000     0.0325273  
H194     H      0.065520000000     0.230280000000     0.474860000000     0.0225758  
H195     H      0.926520000000     0.179270000000     0.562930000000     0.103737   
H196     H      0.987120000000     0.194920000000     0.455270000000     0.0596247  
H197     H      0.995620000000     0.155780000000     0.507460000000     0.064628   
H198     H      0.998130000000     0.251160000000     0.528840000000     0.0368034  
H199     H      0.006330000000     0.211590000000     0.580170000000     0.023252   
H200     H      0.080770000000     0.183240000000     0.404680000000     0.0998336  
H201     H      0.706120000000     0.093120000000     0.630560000000     0.0369405  
H202     H      0.767120000000     0.102740000000     0.619410000000     0.0245402  
H203     H      0.792680000000     0.246030000000     0.592660000000    -0.594972   
H204     H      0.697630000000     0.168490000000     0.603400000000     0.05323    
H205     H      0.731140000000     0.162460000000     0.665350000000     0.0430501  
H206     H      0.769720000000     0.184110000000     0.547640000000     0.0507187  
H207     H      0.803970000000     0.175470000000     0.608930000000     0.0474662  
H208     H      0.756280000000     0.110080000000     0.520680000000     0.0986797  
H209     H      0.716020000000     0.498910000000     0.968770000000     0.0342487  
H210     H      0.775010000000     0.493220000000     0.985880000000     0.0227399  
H211     H      0.725830000000     0.356240000000     0.006890000000     0.103259   
H212     H      0.693030000000     0.428930000000     0.016380000000     0.0606022  
H213     H      0.728410000000     0.426590000000     0.955310000000     0.0513129  
H214     H      0.759130000000     0.420910000000     0.078050000000     0.031807   
H215     H      0.798910000000     0.427590000000     0.021000000000     0.0344912  
H216     H      0.761000000000     0.505260000000     0.082080000000     0.0997445  
H217     H      0.062980000000     0.398490000000     0.100310000000     0.0348158  
H218     H      0.052860000000     0.370200000000     0.165220000000     0.0236382  
H219     H      0.905340000000     0.357900000000     0.090950000000    -0.597276   
H220     H      0.985280000000     0.411680000000     0.184170000000     0.0493755  
H221     H      0.994500000000     0.437400000000     0.117640000000     0.0592869  
H222     H      0.971500000000     0.342740000000     0.137740000000     0.0465854  
H223     H      0.983650000000     0.366670000000     0.070000000000     0.0468525  
H224     H      0.084500000000     0.428480000000     0.215450000000     0.100369   
H225     H      0.906840000000     0.166850000000     0.087330000000     0.0332818  
H226     H      0.946260000000     0.166350000000     0.029840000000     0.0288319  
H227     H      0.999820000000     0.106110000000     0.198600000000     0.100039   
H228     H      0.012450000000     0.165140000000     0.093290000000     0.0578509  
H229     H      0.976880000000     0.173090000000     0.153000000000     0.0551121  
H230     H      0.968480000000     0.094770000000     0.077090000000     0.0371134  
H231     H      0.932610000000     0.103780000000     0.136690000000     0.0254259  
H232     H      0.982160000000     0.237170000000     0.088320000000     0.10272    
H233     H      0.740960000000     0.161880000000     0.002730000000     0.042602   
H234     H      0.772330000000     0.184550000000     0.061380000000     0.0496374  
H235     H      0.644290000000     0.164300000000     0.998980000000     0.0986368  
H236     H      0.726950000000     0.247180000000     0.057240000000     0.0543628  
H237     H      0.698320000000     0.227570000000     0.995080000000     0.0455402  
H238     H      0.651800000000     0.215830000000     0.083030000000     0.0275999  
H239     H      0.693540000000     0.183680000000     0.110430000000     0.04046    
H240     H      0.803710000000     0.236000000000     0.003380000000    -0.579819   
H241     H      0.844230000000     0.809570000000     0.747060000000     0.0315607  
H242     H      0.890940000000     0.777400000000     0.742910000000     0.0293405  
H243     H      0.929210000000     0.854650000000     0.897810000000     0.104597   
H244     H      0.941750000000     0.832590000000     0.795350000000     0.0545096  
H245     H      0.893800000000     0.864070000000     0.800200000000     0.0559715  
H246     H      0.898770000000     0.775450000000     0.849760000000     0.0286689  
H247     H      0.848640000000     0.803540000000     0.851300000000     0.0316623  
H248     H      0.924620000000     0.857630000000     0.697460000000     0.104435   
H249     H      0.826730000000     0.815750000000     0.351400000000     0.0290908  
H250     H      0.868190000000     0.778170000000     0.348250000000     0.0307391  
H251     H      0.781620000000     0.739900000000     0.196950000000     0.103275   
H252     H      0.813300000000     0.728770000000     0.294720000000     0.0560258  
H253     H      0.769640000000     0.764910000000     0.299530000000     0.0552932  
H254     H      0.864630000000     0.785530000000     0.243730000000     0.0302143  
H255     H      0.818340000000     0.818310000000     0.245220000000     0.0293574  
H256     H      0.783010000000     0.738870000000     0.397530000000     0.105418   
H257     H      0.809000000000     0.938360000000     0.523010000000     0.0290869  
H258     H      0.782850000000     0.911960000000     0.463800000000     0.027805   
H259     H      0.640030000000     0.927580000000     0.547730000000     0.0989933  
H260     H      0.730210000000     0.952250000000     0.558360000000     0.0578082  
H261     H      0.746390000000     0.978030000000     0.494050000000     0.0564714  
H262     H      0.689500000000     0.892300000000     0.489600000000     0.0264504  
H263     H      0.693740000000     0.934350000000     0.439480000000     0.0360131  
H264     H      0.737780000000     0.874600000000     0.561870000000     0.105671   
H265     H      0.951740000000     0.994210000000     0.475020000000     0.0382012  
H266     H      0.926100000000     0.975580000000     0.409650000000     0.0256303  
H267     H      0.917450000000     0.847960000000     0.503060000000    -0.585115   
H268     H      0.978170000000     0.917030000000     0.409430000000     0.049385   
H269     H      0.999700000000     0.934240000000     0.476850000000     0.0557013  
H270     H      0.898650000000     0.904060000000     0.448890000000     0.0454371  
H271     H      0.920620000000     0.920500000000     0.517130000000     0.0452013  
H272     H      0.996220000000     0.993560000000     0.360730000000     0.101043   
H273     H      0.074450000000     0.691550000000     0.527510000000     0.0325424  
H274     H      0.065520000000     0.730280000000     0.474860000000     0.0225856  
H275     H      0.926520000000     0.679270000000     0.562930000000     0.10384    
H276     H      0.987120000000     0.694920000000     0.455270000000     0.0596815  
H277     H      0.995620000000     0.655780000000     0.507460000000     0.0647315  
H278     H      0.998130000000     0.751160000000     0.528840000000     0.0368153  
H279     H      0.006330000000     0.711590000000     0.580170000000     0.0233002  
H280     H      0.080770000000     0.683240000000     0.404680000000     0.0998676  
H281     H      0.706120000000     0.593120000000     0.630560000000     0.0371676  
H282     H      0.767120000000     0.602740000000     0.619410000000     0.0247646  
H283     H      0.792680000000     0.746020000000     0.592660000000    -0.594439   
H284     H      0.697630000000     0.668490000000     0.603400000000     0.0532609  
H285     H      0.731140000000     0.662460000000     0.665350000000     0.043147   
H286     H      0.769720000000     0.684110000000     0.547640000000     0.0507341  
H287     H      0.803970000000     0.675460000000     0.608930000000     0.047518   
H288     H      0.756280000000     0.610080000000     0.520680000000     0.0988391  
H289     H      0.716020000000     0.998910000000     0.968770000000     0.0345551  
H290     H      0.775000000000     0.993220000000     0.985880000000     0.0229434  
H291     H      0.725830000000     0.856240000000     0.006890000000     0.103307   
H292     H      0.693030000000     0.928930000000     0.016380000000     0.0608832  
H293     H      0.728410000000     0.926590000000     0.955310000000     0.0514697  
H294     H      0.759130000000     0.920910000000     0.078050000000     0.0320304  
H295     H      0.798910000000     0.927590000000     0.021000000000     0.0346465  
H296     H      0.760990000000     0.005260000000     0.082080000000     0.0993459  
H297     H      0.062980000000     0.898490000000     0.100310000000     0.0348996  
H298     H      0.052860000000     0.870200000000     0.165220000000     0.023667   
H299     H      0.905340000000     0.857900000000     0.090950000000    -0.597272   
H300     H      0.985280000000     0.911680000000     0.184170000000     0.0495095  
H301     H      0.994500000000     0.937400000000     0.117640000000     0.0595173  
H302     H      0.971490000000     0.842740000000     0.137740000000     0.0466221  
H303     H      0.983650000000     0.866670000000     0.070000000000     0.0469268  
H304     H      0.084500000000     0.928480000000     0.215450000000     0.100508   
H305     H      0.906840000000     0.666850000000     0.087330000000     0.0333556  
H306     H      0.946250000000     0.666350000000     0.029840000000     0.0289256  
H307     H      0.999820000000     0.606110000000     0.198600000000     0.100176   
H308     H      0.012450000000     0.665140000000     0.093290000000     0.0578556  
H309     H      0.976880000000     0.673090000000     0.153000000000     0.0551283  
H310     H      0.968480000000     0.594770000000     0.077090000000     0.0372897  
H311     H      0.932610000000     0.603780000000     0.136690000000     0.0256101  
H312     H      0.982160000000     0.737170000000     0.088320000000     0.10273    
H313     H      0.740960000000     0.661880000000     0.002730000000     0.0427055  
H314     H      0.772330000000     0.684560000000     0.061380000000     0.0496896  
H315     H      0.644290000000     0.664300000000     0.998980000000     0.0987152  
H316     H      0.726950000000     0.747180000000     0.057240000000     0.0543673  
H317     H      0.698320000000     0.727570000000     0.995080000000     0.0455721  
H318     H      0.651800000000     0.715830000000     0.083030000000     0.0276127  
H319     H      0.693540000000     0.683680000000     0.110430000000     0.0404799  
H320     H      0.803710000000     0.736000000000     0.003380000000    -0.579855   
N1       N      0.404210000000     0.329120000000     0.901090000000    -0.250153   
N2       N      0.399030000000     0.332550000000     0.694480000000    -0.250044   
N3       N      0.307310000000     0.264890000000     0.193790000000    -0.250641   
N4       N      0.311030000000     0.261670000000     0.400490000000    -0.24999    
N5       N      0.152520000000     0.442750000000     0.511380000000    -0.221209   
N6       N      0.269240000000     0.381490000000     0.541390000000    -0.250452   
N7       N      0.443070000000     0.364200000000     0.486520000000     0.0299743  
N8       N      0.495880000000     0.498720000000     0.403810000000    -0.218871   
N9       N      0.438800000000     0.209430000000     0.549950000000    -0.249456   
N10      N      0.573100000000     0.169900000000     0.443800000000    -0.220879   
N11      N      0.268280000000     0.229390000000     0.611020000000     0.0341415  
N12      N      0.227260000000     0.104330000000     0.546100000000    -0.218921   
N13      N      0.257250000000     0.369630000000     0.022710000000    -0.249748   
N14      N      0.232590000000     0.502500000000     0.055320000000    -0.220093   
N15      N      0.422340000000     0.381380000000     0.108190000000     0.0356921  
N16      N      0.575300000000     0.434270000000     0.174190000000    -0.220024   
N17      N      0.501300000000     0.095910000000     0.157230000000    -0.219647   
N18      N      0.450210000000     0.223220000000     0.074840000000    -0.248499   
N19      N      0.154050000000     0.158990000000     0.040190000000    -0.219168   
N20      N      0.286440000000     0.214020000000     0.983300000000     0.0281962  
N21      N      0.404210000000     0.829110000000     0.901090000000    -0.250087   
N22      N      0.399030000000     0.832550000000     0.694480000000    -0.250041   
N23      N      0.307310000000     0.764890000000     0.193790000000    -0.250621   
N24      N      0.311030000000     0.761670000000     0.400490000000    -0.249928   
N25      N      0.152520000000     0.942750000000     0.511380000000    -0.221119   
N26      N      0.269240000000     0.881490000000     0.541390000000    -0.250422   
N27      N      0.443070000000     0.864200000000     0.486520000000     0.0298196  
N28      N      0.495880000000     0.998720000000     0.403810000000    -0.218062   
N29      N      0.438800000000     0.709430000000     0.549950000000    -0.249416   
N30      N      0.573100000000     0.669900000000     0.443800000000    -0.220865   
N31      N      0.268280000000     0.729390000000     0.611020000000     0.0340875  
N32      N      0.227260000000     0.604330000000     0.546100000000    -0.218877   
N33      N      0.257250000000     0.869630000000     0.022710000000    -0.249736   
N34      N      0.232590000000     0.002500000000     0.055320000000    -0.220789   
N35      N      0.422340000000     0.881380000000     0.108190000000     0.0356084  
N36      N      0.575300000000     0.934270000000     0.174190000000    -0.219948   
N37      N      0.501300000000     0.595910000000     0.157230000000    -0.219609   
N38      N      0.450210000000     0.723220000000     0.074840000000    -0.24846    
N39      N      0.154050000000     0.658990000000     0.040190000000    -0.219193   
N40      N      0.286440000000     0.714020000000     0.983300000000     0.0282825  
N41      N      0.904210000000     0.329120000000     0.901090000000    -0.250123   
N42      N      0.899030000000     0.332550000000     0.694480000000    -0.250028   
N43      N      0.807310000000     0.264890000000     0.193790000000    -0.250628   
N44      N      0.811030000000     0.261670000000     0.400490000000    -0.24998    
N45      N      0.652520000000     0.442750000000     0.511380000000    -0.221211   
N46      N      0.769240000000     0.381490000000     0.541390000000    -0.250447   
N47      N      0.943070000000     0.364200000000     0.486520000000     0.0298391  
N48      N      0.995880000000     0.498720000000     0.403810000000    -0.218935   
N49      N      0.938800000000     0.209430000000     0.549950000000    -0.249418   
N50      N      0.073100000000     0.169900000000     0.443800000000    -0.220851   
N51      N      0.768280000000     0.229390000000     0.611020000000     0.034145   
N52      N      0.727260000000     0.104330000000     0.546100000000    -0.218942   
N53      N      0.757250000000     0.369630000000     0.022710000000    -0.249741   
N54      N      0.732590000000     0.502500000000     0.055320000000    -0.220095   
N55      N      0.922340000000     0.381380000000     0.108190000000     0.0354969  
N56      N      0.075300000000     0.434270000000     0.174190000000    -0.220028   
N57      N      0.001300000000     0.095910000000     0.157230000000    -0.219596   
N58      N      0.950210000000     0.223220000000     0.074840000000    -0.248524   
N59      N      0.654050000000     0.158990000000     0.040190000000    -0.219168   
N60      N      0.786440000000     0.214020000000     0.983300000000     0.0282173  
N61      N      0.904210000000     0.829110000000     0.901090000000    -0.250087   
N62      N      0.899030000000     0.832550000000     0.694480000000    -0.250006   
N63      N      0.807310000000     0.764890000000     0.193790000000    -0.250621   
N64      N      0.811030000000     0.761670000000     0.400490000000    -0.249928   
N65      N      0.652510000000     0.942750000000     0.511380000000    -0.221167   
N66      N      0.769240000000     0.881490000000     0.541390000000    -0.25042    
N67      N      0.943070000000     0.864200000000     0.486520000000     0.0298143  
N68      N      0.995880000000     0.998720000000     0.403810000000    -0.218088   
N69      N      0.938800000000     0.709430000000     0.549950000000    -0.249399   
N70      N      0.073100000000     0.669900000000     0.443800000000    -0.220853   
N71      N      0.768270000000     0.729390000000     0.611020000000     0.034005   
N72      N      0.727260000000     0.604330000000     0.546100000000    -0.218876   
N73      N      0.757250000000     0.869630000000     0.022710000000    -0.249736   
N74      N      0.732590000000     0.002500000000     0.055320000000    -0.220829   
N75      N      0.922340000000     0.881380000000     0.108190000000     0.0356046  
N76      N      0.075300000000     0.934270000000     0.174190000000    -0.219935   
N77      N      0.001300000000     0.595910000000     0.157230000000    -0.219541   
N78      N      0.950210000000     0.723220000000     0.074840000000    -0.248463   
N79      N      0.654050000000     0.658990000000     0.040190000000    -0.219193   
N80      N      0.786440000000     0.714020000000     0.983300000000     0.0282814  
O1       O      0.157250000000     0.513460000000     0.040890000000    -0.402222   
O2       O      0.540300000000     0.060900000000     0.092040000000    -0.401362   
O3       O      0.119910000000     0.092700000000     0.032490000000    -0.405534   
O4       O      0.577150000000     0.480260000000     0.101070000000    -0.403907   
O5       O      0.612390000000     0.499620000000     0.181010000000    -0.403544   
O6       O      0.152330000000     0.113230000000     0.113620000000    -0.403018   
O7       O      0.573350000000     0.077980000000     0.174020000000    -0.40276    
O8       O      0.191600000000     0.534360000000     0.120770000000    -0.403384   
O9       O      0.607080000000     0.112230000000     0.417050000000    -0.402823   
O10      O      0.149240000000     0.498040000000     0.451660000000    -0.402068   
O11      O      0.569760000000     0.527750000000     0.398090000000    -0.402363   
O12      O      0.186170000000     0.082100000000     0.469560000000    -0.405576   
O13      O      0.151030000000     0.080410000000     0.552440000000    -0.402025   
O14      O      0.533640000000     0.527680000000     0.480280000000    -0.401618   
O15      O      0.110950000000     0.496760000000     0.532470000000    -0.406274   
O16      O      0.573370000000     0.112710000000     0.500700000000    -0.40383    
O17      O      0.402170000000     0.339450000000     0.994440000000    -0.615159   
O18      O      0.353720000000     0.307240000000     0.137140000000    -0.61574    
O19      O      0.424620000000     0.287600000000     0.073880000000    -0.615663   
O20      O      0.329080000000     0.358970000000     0.053020000000    -0.613574   
O21      O      0.284300000000     0.305890000000     0.018290000000    -0.61357    
O22      O      0.378490000000     0.233620000000     0.043680000000    -0.604361   
O23      O      0.307560000000     0.256000000000     0.100130000000    -0.612266   
O24      O      0.358190000000     0.286490000000     0.957920000000    -0.612935   
O25      O      0.361140000000     0.300790000000     0.456510000000    -0.610417   
O26      O      0.400510000000     0.339410000000     0.600380000000    -0.61319    
O27      O      0.422680000000     0.276260000000     0.531990000000    -0.6149     
O28      O      0.339960000000     0.360770000000     0.522880000000    -0.609873   
O29      O      0.288610000000     0.317790000000     0.567270000000    -0.619423   
O30      O      0.367990000000     0.230460000000     0.564730000000    -0.615048   
O31      O      0.352220000000     0.290180000000     0.638380000000    -0.616014   
O32      O      0.306760000000     0.257100000000     0.494720000000    -0.612443   
O33      O      0.157250000000     0.013460000000     0.040890000000    -0.40266    
O34      O      0.540300000000     0.560900000000     0.092040000000    -0.401271   
O35      O      0.119910000000     0.592710000000     0.032490000000    -0.405653   
O36      O      0.577150000000     0.980260000000     0.101070000000    -0.402902   
O37      O      0.612390000000     0.999620000000     0.181010000000    -0.402426   
O38      O      0.152330000000     0.613230000000     0.113620000000    -0.403215   
O39      O      0.573340000000     0.577980000000     0.174020000000    -0.402703   
O40      O      0.191600000000     0.034360000000     0.120770000000    -0.403598   
O41      O      0.607080000000     0.612230000000     0.417050000000    -0.402885   
O42      O      0.149240000000     0.998040000000     0.451660000000    -0.400961   
O43      O      0.569750000000     0.027750000000     0.398090000000    -0.402462   
O44      O      0.186170000000     0.582100000000     0.469560000000    -0.405456   
O45      O      0.151030000000     0.580410000000     0.552440000000    -0.401961   
O46      O      0.533640000000     0.027680000000     0.480280000000    -0.401785   
O47      O      0.110950000000     0.996760000000     0.532470000000    -0.405171   
O48      O      0.573360000000     0.612700000000     0.500700000000    -0.403941   
O49      O      0.402170000000     0.839450000000     0.994440000000    -0.614751   
O50      O      0.353720000000     0.807240000000     0.137140000000    -0.615547   
O51      O      0.424620000000     0.787600000000     0.073880000000    -0.615291   
O52      O      0.329080000000     0.858970000000     0.053020000000    -0.613414   
O53      O      0.284300000000     0.805890000000     0.018290000000    -0.61357    
O54      O      0.378490000000     0.733620000000     0.043680000000    -0.604311   
O55      O      0.307560000000     0.756000000000     0.100130000000    -0.612267   
O56      O      0.358190000000     0.786490000000     0.957920000000    -0.612991   
O57      O      0.361140000000     0.800790000000     0.456510000000    -0.610175   
O58      O      0.400510000000     0.839400000000     0.600380000000    -0.612967   
O59      O      0.422680000000     0.776260000000     0.531990000000    -0.614515   
O60      O      0.339960000000     0.860770000000     0.522880000000    -0.609702   
O61      O      0.288610000000     0.817790000000     0.567270000000    -0.619287   
O62      O      0.367990000000     0.730460000000     0.564730000000    -0.614814   
O63      O      0.352220000000     0.790180000000     0.638380000000    -0.615865   
O64      O      0.306760000000     0.757090000000     0.494720000000    -0.612166   
O65      O      0.657250000000     0.513460000000     0.040890000000    -0.402224   
O66      O      0.040300000000     0.060900000000     0.092040000000    -0.401347   
O67      O      0.619910000000     0.092700000000     0.032490000000    -0.405538   
O68      O      0.077150000000     0.480260000000     0.101070000000    -0.403897   
O69      O      0.112390000000     0.499620000000     0.181010000000    -0.403549   
O70      O      0.652330000000     0.113230000000     0.113620000000    -0.40302    
O71      O      0.073350000000     0.077980000000     0.174020000000    -0.402749   
O72      O      0.691600000000     0.534360000000     0.120770000000    -0.403374   
O73      O      0.107080000000     0.112230000000     0.417050000000    -0.402806   
O74      O      0.649240000000     0.498040000000     0.451660000000    -0.402072   
O75      O      0.069750000000     0.527750000000     0.398090000000    -0.402402   
O76      O      0.686170000000     0.082100000000     0.469560000000    -0.405612   
O77      O      0.651040000000     0.080410000000     0.552440000000    -0.402062   
O78      O      0.033640000000     0.527680000000     0.480280000000    -0.401649   
O79      O      0.610950000000     0.496760000000     0.532470000000    -0.406278   
O80      O      0.073360000000     0.112710000000     0.500700000000    -0.40377    
O81      O      0.902170000000     0.339450000000     0.994440000000    -0.614859   
O82      O      0.853720000000     0.307240000000     0.137140000000    -0.615564   
O83      O      0.924620000000     0.287600000000     0.073880000000    -0.615281   
O84      O      0.829080000000     0.358970000000     0.053020000000    -0.613483   
O85      O      0.784300000000     0.305890000000     0.018290000000    -0.61357    
O86      O      0.878490000000     0.233620000000     0.043680000000    -0.604218   
O87      O      0.807560000000     0.256000000000     0.100130000000    -0.612255   
O88      O      0.858190000000     0.286490000000     0.957920000000    -0.612907   
O89      O      0.861140000000     0.300790000000     0.456510000000    -0.61031    
O90      O      0.900510000000     0.339410000000     0.600380000000    -0.612999   
O91      O      0.922680000000     0.276260000000     0.531990000000    -0.614632   
O92      O      0.839960000000     0.360770000000     0.522880000000    -0.609838   
O93      O      0.788610000000     0.317790000000     0.567270000000    -0.619419   
O94      O      0.867990000000     0.230460000000     0.564730000000    -0.615012   
O95      O      0.852220000000     0.290180000000     0.638380000000    -0.615989   
O96      O      0.806760000000     0.257100000000     0.494720000000    -0.61243    
O97      O      0.657250000000     0.013460000000     0.040890000000    -0.402662   
O98      O      0.040300000000     0.560900000000     0.092040000000    -0.401219   
O99      O      0.619910000000     0.592710000000     0.032490000000    -0.405658   
O100     O      0.077150000000     0.980260000000     0.101070000000    -0.402892   
O101     O      0.112390000000     0.999620000000     0.181010000000    -0.402422   
O102     O      0.652330000000     0.613230000000     0.113620000000    -0.403211   
O103     O      0.073350000000     0.577980000000     0.174020000000    -0.402664   
O104     O      0.691600000000     0.034360000000     0.120770000000    -0.403604   
O105     O      0.107080000000     0.612230000000     0.417050000000    -0.402874   
O106     O      0.649240000000     0.998040000000     0.451660000000    -0.400978   
O107     O      0.069750000000     0.027750000000     0.398090000000    -0.402459   
O108     O      0.686170000000     0.582100000000     0.469560000000    -0.405464   
O109     O      0.651030000000     0.580410000000     0.552440000000    -0.40196    
O110     O      0.033640000000     0.027680000000     0.480280000000    -0.401777   
O111     O      0.610950000000     0.996760000000     0.532470000000    -0.405186   
O112     O      0.073360000000     0.612700000000     0.500700000000    -0.403933   
O113     O      0.902170000000     0.839450000000     0.994440000000    -0.614754   
O114     O      0.853720000000     0.807240000000     0.137140000000    -0.615548   
O115     O      0.924620000000     0.787600000000     0.073880000000    -0.615295   
O116     O      0.829080000000     0.858970000000     0.053020000000    -0.613415   
O117     O      0.784300000000     0.805890000000     0.018290000000    -0.613571   
O118     O      0.878490000000     0.733620000000     0.043680000000    -0.604313   
O119     O      0.807560000000     0.756000000000     0.100130000000    -0.612267   
O120     O      0.858190000000     0.786490000000     0.957920000000    -0.612992   
O121     O      0.861140000000     0.800790000000     0.456510000000    -0.610174   
O122     O      0.900510000000     0.839400000000     0.600380000000    -0.612965   
O123     O      0.922680000000     0.776260000000     0.531990000000    -0.614517   
O124     O      0.839960000000     0.860770000000     0.522880000000    -0.609701   
O125     O      0.788610000000     0.817790000000     0.567270000000    -0.619276   
O126     O      0.867990000000     0.730460000000     0.564730000000    -0.614803   
O127     O      0.852220000000     0.790180000000     0.638380000000    -0.615852   
O128     O      0.806760000000     0.757090000000     0.494720000000    -0.612156   


