data_structure

_audit_creation_method RASPA-1.0
_audit_creation_date 2023-6-4
_audit_author_name 'Poobodin Mano'

_cell_length_a    31.9922
_cell_length_b    39.786
_cell_length_c    25.8666
_cell_angle_alpha 89.9989
_cell_angle_beta  89.9989
_cell_angle_gamma 94.9913
_cell_volume      32799.2

_symmetry_cell_setting          triclinic
_symmetry_space_group_name_Hall 'P 1'
_symmetry_space_group_name_H-M  'P 1'
_symmetry_Int_Tables_number     1

_symmetry_equiv_pos_as_xyz 'x,y,z'

loop_
_atom_site_label
_atom_site_type_symbol
_atom_site_fract_x
_atom_site_fract_y
_atom_site_fract_z
_atom_site_charge
C1       C      0.144230000000     0.447120000000     0.065490000000     0.411881   
C2       C      0.566750000000     0.058400000000     0.031290000000     0.411728   
C3       C      0.174750000000     0.040820000000     0.068550000000     0.416487   
C4       C      0.532660000000     0.465850000000     0.029640000000     0.414351   
C5       C      0.157800000000     0.432040000000     0.601440000000     0.412102   
C6       C      0.545910000000     0.012850000000     0.527360000000     0.412472   
C7       C      0.165680000000     0.018590000000     0.551140000000     0.413886   
C8       C      0.532870000000     0.425660000000     0.580080000000     0.413927   
C9       C      0.360540000000     0.252690000000     0.949500000000     0.558922   
C10      C      0.365660000000     0.260790000000     0.144480000000     0.551962   
C11      C      0.419880000000     0.213540000000     0.053490000000     0.564477   
C12      C      0.309430000000     0.297230000000     0.046170000000     0.549057   
C13      C      0.327760000000     0.228750000000     0.474150000000     0.53814    
C14      C      0.380510000000     0.215950000000     0.656880000000     0.540616   
C15      C      0.370500000000     0.163810000000     0.545530000000     0.539274   
C16      C      0.336770000000     0.283050000000     0.586070000000     0.535491   
C17      C      0.336050000000     0.207940000000     0.832930000000    -0.0798475  
C18      C      0.359720000000     0.223420000000     0.785670000000    -0.0779406  
C19      C      0.370910000000     0.196000000000     0.747800000000     0.0151397  
C20      C      0.321150000000     0.234760000000     0.869580000000     0.0151275  
C21      C      0.353550000000     0.254350000000     0.288600000000    -0.0827083  
C22      C      0.323990000000     0.237480000000     0.329540000000    -0.0838132  
C23      C      0.341710000000     0.245570000000     0.383710000000     0.0169719  
C24      C      0.339200000000     0.246390000000     0.233000000000     0.0169526  
C25      C      0.234920000000     0.366740000000     0.621090000000    -0.0805996  
C26      C      0.268560000000     0.350390000000     0.589610000000    -0.0813547  
C27      C      0.289940000000     0.324420000000     0.622090000000     0.0133427  
C28      C      0.211640000000     0.391500000000     0.588430000000     0.00744795 
C29      C      0.468990000000     0.314720000000     0.536890000000    -0.0449055  
C30      C      0.487100000000     0.342630000000     0.573520000000    -0.0922398  
C31      C      0.482660000000     0.377800000000     0.551240000000     0.0125155  
C32      C      0.472850000000     0.279810000000     0.560400000000    -0.0621579  
C33      C      0.439250000000     0.097510000000     0.540210000000    -0.0818712  
C34      C      0.471350000000     0.080120000000     0.507690000000    -0.0806219  
C35      C      0.495760000000     0.056180000000     0.540430000000     0.00769481 
C36      C      0.416450000000     0.122520000000     0.507580000000     0.0156526  
C37      C      0.233310000000     0.130080000000     0.596590000000    -0.0591207  
C38      C      0.216200000000     0.103140000000     0.557760000000    -0.0875491  
C39      C      0.212400000000     0.067910000000     0.582140000000     0.0103628  
C40      C      0.237260000000     0.165170000000     0.572000000000    -0.0343311  
C41      C      0.255780000000     0.374840000000     0.014870000000    -0.0862174  
C42      C      0.225560000000     0.385120000000     0.057200000000    -0.0772572  
C43      C      0.190790000000     0.404860000000     0.033940000000     0.00586487 
C44      C      0.292480000000     0.356480000000     0.036290000000     0.0177338  
C45      C      0.448320000000     0.406560000000     0.972450000000    -0.0888981  
C46      C      0.464250000000     0.375980000000     0.000070000000    -0.0500799  
C47      C      0.428890000000     0.348300000000     0.008430000000    -0.0674995  
C48      C      0.482700000000     0.435750000000     0.968800000000     0.0123933  
C49      C      0.515050000000     0.168150000000     0.084730000000    -0.0837016  
C50      C      0.520020000000     0.141820000000     0.042200000000    -0.077407   
C51      C      0.537170000000     0.109820000000     0.063990000000     0.00669143 
C52      C      0.492930000000     0.198450000000     0.064880000000     0.0179709  
C53      C      0.257430000000     0.111610000000     0.054780000000    -0.0926404  
C54      C      0.276650000000     0.131770000000     0.008830000000    -0.0444279  
C55      C      0.308090000000     0.160570000000     0.026040000000    -0.0784519  
C56      C      0.234000000000     0.078640000000     0.036240000000     0.0130017  
C57      C      0.144810000000     0.947200000000     0.065920000000     0.411743   
C58      C      0.567000000000     0.558440000000     0.032840000000     0.411629   
C59      C      0.174020000000     0.540700000000     0.069690000000     0.416642   
C60      C      0.532430000000     0.965770000000     0.029930000000     0.414448   
C61      C      0.156910000000     0.930160000000     0.603450000000     0.412078   
C62      C      0.546970000000     0.513720000000     0.527700000000     0.412235   
C63      C      0.165830000000     0.520930000000     0.551140000000     0.413716   
C64      C      0.531220000000     0.925100000000     0.581020000000     0.413982   
C65      C      0.360980000000     0.751750000000     0.952420000000     0.558396   
C66      C      0.365770000000     0.761030000000     0.147320000000     0.551293   
C67      C      0.420140000000     0.713310000000     0.057150000000     0.56391    
C68      C      0.309610000000     0.796880000000     0.048250000000     0.549044   
C69      C      0.328010000000     0.729000000000     0.477040000000     0.557619   
C70      C      0.380490000000     0.714730000000     0.659600000000     0.55702    
C71      C      0.369680000000     0.663060000000     0.547860000000     0.554889   
C72      C      0.337130000000     0.782480000000     0.589320000000     0.555746   
C73      C      0.336550000000     0.706490000000     0.835970000000    -0.0798017  
C74      C      0.359980000000     0.721970000000     0.788550000000    -0.0784156  
C75      C      0.370840000000     0.694580000000     0.750440000000     0.0167534  
C76      C      0.321680000000     0.733300000000     0.872680000000     0.0150326  
C77      C      0.353870000000     0.754840000000     0.291490000000    -0.0826771  
C78      C      0.324250000000     0.738130000000     0.332510000000    -0.0839111  
C79      C      0.342110000000     0.746010000000     0.386680000000     0.0172769  
C80      C      0.339280000000     0.746990000000     0.235940000000     0.0168661  
C81      C      0.234830000000     0.865540000000     0.624270000000    -0.0803656  
C82      C      0.268330000000     0.848980000000     0.592800000000    -0.0821595  
C83      C      0.290670000000     0.823910000000     0.625950000000     0.0154658  
C84      C      0.210590000000     0.889400000000     0.591110000000     0.0071554  
C85      C      0.468660000000     0.813740000000     0.539080000000    -0.0463664  
C86      C      0.486360000000     0.842030000000     0.575320000000    -0.0915365  
C87      C      0.481240000000     0.876980000000     0.552620000000     0.0123638  
C88      C      0.472920000000     0.779050000000     0.563190000000    -0.0590331  
C89      C      0.438880000000     0.597280000000     0.541930000000    -0.0819378  
C90      C      0.471210000000     0.580270000000     0.509220000000    -0.0805624  
C91      C      0.496340000000     0.556660000000     0.541670000000     0.00756485 
C92      C      0.415400000000     0.621850000000     0.509270000000     0.0159585  
C93      C      0.232580000000     0.632800000000     0.596890000000    -0.0465663  
C94      C      0.214800000000     0.605680000000     0.558710000000    -0.0921963  
C95      C      0.212200000000     0.570370000000     0.582820000000     0.0118931  
C96      C      0.233500000000     0.667980000000     0.572750000000    -0.0589306  
C97      C      0.255890000000     0.874300000000     0.015720000000    -0.0861747  
C98      C      0.225910000000     0.884970000000     0.058060000000    -0.0773357  
C99      C      0.191140000000     0.904670000000     0.034710000000     0.00592052 
C100     C      0.292650000000     0.856050000000     0.037240000000     0.0176798  
C101     C      0.448150000000     0.905970000000     0.973710000000    -0.0888737  
C102     C      0.464210000000     0.875580000000     0.001720000000    -0.0501728  
C103     C      0.428930000000     0.847870000000     0.010380000000    -0.0674135  
C104     C      0.482450000000     0.935190000000     0.969610000000     0.0123829  
C105     C      0.515450000000     0.667910000000     0.088110000000    -0.0836534  
C106     C      0.520220000000     0.641770000000     0.045240000000    -0.0774214  
C107     C      0.537510000000     0.609670000000     0.066490000000     0.00671069 
C108     C      0.493200000000     0.698280000000     0.068760000000     0.0179127  
C109     C      0.257240000000     0.611300000000     0.057620000000    -0.0927659  
C110     C      0.277170000000     0.631520000000     0.012150000000    -0.0443087  
C111     C      0.308560000000     0.660140000000     0.030090000000    -0.0783456  
C112     C      0.233570000000     0.578610000000     0.038390000000     0.0130801  
C113     C      0.643750000000     0.446700000000     0.063740000000     0.411799   
C114     C      0.066590000000     0.057840000000     0.031760000000     0.411744   
C115     C      0.674910000000     0.040250000000     0.066220000000     0.416715   
C116     C      0.033350000000     0.464980000000     0.028660000000     0.41459    
C117     C      0.650050000000     0.426860000000     0.600650000000     0.411804   
C118     C      0.049200000000     0.012120000000     0.527220000000     0.412364   
C119     C      0.662540000000     0.014080000000     0.549110000000     0.413978   
C120     C      0.041250000000     0.424860000000     0.577170000000     0.413582   
C121     C      0.859990000000     0.252470000000     0.945500000000     0.558554   
C122     C      0.862900000000     0.259350000000     0.140570000000     0.552476   
C123     C      0.918310000000     0.212580000000     0.050110000000     0.564668   
C124     C      0.808230000000     0.296540000000     0.041920000000     0.54829    
C125     C      0.824090000000     0.223690000000     0.469040000000     0.538495   
C126     C      0.877510000000     0.213840000000     0.652030000000     0.540959   
C127     C      0.869590000000     0.160650000000     0.541870000000     0.537807   
C128     C      0.830710000000     0.278940000000     0.579890000000     0.534449   
C129     C      0.834410000000     0.208490000000     0.828910000000    -0.0797272  
C130     C      0.858270000000     0.223270000000     0.781340000000    -0.0779917  
C131     C      0.868530000000     0.195390000000     0.743780000000     0.014825   
C132     C      0.820480000000     0.235900000000     0.865170000000     0.015183   
C133     C      0.849770000000     0.250830000000     0.284160000000    -0.0826386  
C134     C      0.820010000000     0.233410000000     0.324410000000    -0.0839492  
C135     C      0.838090000000     0.240210000000     0.378720000000     0.0171484  
C136     C      0.835360000000     0.244150000000     0.228280000000     0.0171033  
C137     C      0.726670000000     0.360720000000     0.618040000000    -0.0806286  
C138     C      0.759660000000     0.344600000000     0.585090000000    -0.081373   
C139     C      0.782680000000     0.319140000000     0.616680000000     0.0132209  
C140     C      0.701560000000     0.384680000000     0.586150000000     0.00726331 
C141     C      0.972390000000     0.312930000000     0.532130000000    -0.0442413  
C142     C      0.988360000000     0.340200000000     0.571120000000    -0.0934402  
C143     C      0.995740000000     0.374980000000     0.545580000000     0.0114498  
C144     C      0.966920000000     0.278170000000     0.557810000000    -0.0662342  
C145     C      0.939410000000     0.094330000000     0.538590000000    -0.081847   
C146     C      0.972810000000     0.077870000000     0.506910000000    -0.0805557  
C147     C      0.996180000000     0.053290000000     0.539730000000     0.00733652 
C148     C      0.917700000000     0.120150000000     0.506240000000     0.0152331  
C149     C      0.732730000000     0.124050000000     0.592500000000    -0.0596546  
C150     C      0.714510000000     0.097010000000     0.554480000000    -0.0872338  
C151     C      0.712830000000     0.061700000000     0.578400000000     0.010522   
C152     C      0.735550000000     0.159100000000     0.567850000000    -0.0335591  
C153     C      0.754660000000     0.374370000000     0.011270000000    -0.0861935  
C154     C      0.724670000000     0.384500000000     0.053980000000    -0.0773081  
C155     C      0.689660000000     0.404220000000     0.031260000000     0.00589602 
C156     C      0.791400000000     0.355840000000     0.032190000000     0.0177313  
C157     C      0.950110000000     0.405240000000     0.969590000000    -0.0911178  
C158     C      0.964860000000     0.374630000000     0.998330000000    -0.0453183  
C159     C      0.929010000000     0.347180000000     0.005490000000    -0.0691234  
C160     C      0.984970000000     0.434130000000     0.966790000000     0.0128259  
C161     C      0.012640000000     0.166960000000     0.084230000000    -0.0832908  
C162     C      0.018720000000     0.140810000000     0.041780000000    -0.0772907  
C163     C      0.035630000000     0.108820000000     0.063940000000     0.00667008 
C164     C      0.991060000000     0.197350000000     0.063660000000     0.0175236  
C165     C      0.757040000000     0.110870000000     0.050080000000    -0.0920899  
C166     C      0.775310000000     0.130810000000     0.003370000000    -0.0445874  
C167     C      0.806510000000     0.160030000000     0.019480000000    -0.0790076  
C168     C      0.734440000000     0.077300000000     0.032710000000     0.0115364  
C169     C      0.643510000000     0.946940000000     0.064550000000     0.411931   
C170     C      0.066040000000     0.557880000000     0.032360000000     0.411867   
C171     C      0.675120000000     0.540000000000     0.067370000000     0.416721   
C172     C      0.033760000000     0.964970000000     0.029610000000     0.414389   
C173     C      0.648250000000     0.926260000000     0.602710000000     0.411849   
C174     C      0.049210000000     0.513900000000     0.526950000000     0.412153   
C175     C      0.663830000000     0.515040000000     0.548450000000     0.414103   
C176     C      0.040120000000     0.923750000000     0.579640000000     0.413995   
C177     C      0.859230000000     0.752810000000     0.949470000000     0.558442   
C178     C      0.863510000000     0.759630000000     0.144510000000     0.551895   
C179     C      0.918250000000     0.712790000000     0.053300000000     0.565107   
C180     C      0.808220000000     0.796820000000     0.046180000000     0.54841    
C181     C      0.824100000000     0.725450000000     0.473470000000     0.517411   
C182     C      0.875940000000     0.713830000000     0.656830000000     0.526502   
C183     C      0.868830000000     0.661790000000     0.545220000000     0.523076   
C184     C      0.830280000000     0.779800000000     0.585870000000     0.514983   
C185     C      0.832200000000     0.708830000000     0.833480000000    -0.0796763  
C186     C      0.856370000000     0.723260000000     0.785920000000    -0.0778949  
C187     C      0.866070000000     0.695210000000     0.748390000000     0.0146166  
C188     C      0.818870000000     0.736530000000     0.869640000000     0.01517    
C189     C      0.850650000000     0.752030000000     0.288380000000    -0.0831222  
C190     C      0.820910000000     0.734790000000     0.328800000000    -0.0827444  
C191     C      0.838500000000     0.742270000000     0.383200000000     0.0146532  
C192     C      0.836490000000     0.744660000000     0.232560000000     0.0172344  
C193     C      0.725210000000     0.860630000000     0.622270000000    -0.0806359  
C194     C      0.758570000000     0.844410000000     0.590060000000    -0.0812124  
C195     C      0.781970000000     0.819750000000     0.622730000000     0.013083   
C196     C      0.699850000000     0.883960000000     0.589550000000     0.00725497 
C197     C      0.971600000000     0.811340000000     0.539070000000    -0.0520317  
C198     C      0.988300000000     0.839350000000     0.576400000000    -0.0900037  
C199     C      0.993740000000     0.873840000000     0.549720000000     0.0105008  
C200     C      0.968130000000     0.776980000000     0.566140000000    -0.0377558  
C201     C      0.938560000000     0.595340000000     0.540280000000    -0.0814824  
C202     C      0.972170000000     0.579370000000     0.508240000000    -0.0806565  
C203     C      0.995530000000     0.554430000000     0.540410000000     0.00721984 
C204     C      0.916960000000     0.621590000000     0.508690000000     0.0136594  
C205     C      0.732890000000     0.624780000000     0.593860000000    -0.0591815  
C206     C      0.714750000000     0.597990000000     0.555400000000    -0.0874246  
C207     C      0.714290000000     0.562430000000     0.578190000000     0.0107082  
C208     C      0.734710000000     0.660110000000     0.570210000000    -0.0351308  
C209     C      0.754690000000     0.874360000000     0.014120000000    -0.0861853  
C210     C      0.724540000000     0.884800000000     0.056430000000    -0.0772915  
C211     C      0.689520000000     0.904230000000     0.033110000000     0.00593496 
C212     C      0.791410000000     0.856070000000     0.035670000000     0.0176821  
C213     C      0.950000000000     0.905130000000     0.971840000000    -0.0888952  
C214     C      0.964780000000     0.874630000000     0.000810000000    -0.0502409  
C215     C      0.928910000000     0.847260000000     0.008440000000    -0.0671315  
C216     C      0.984940000000     0.933920000000     0.968460000000     0.0121789  
C217     C      0.012720000000     0.666970000000     0.086000000000    -0.0832851  
C218     C      0.018400000000     0.640900000000     0.043300000000    -0.0772994  
C219     C      0.035190000000     0.608750000000     0.065090000000     0.00667053 
C220     C      0.991050000000     0.697440000000     0.065900000000     0.0175619  
C221     C      0.756960000000     0.610960000000     0.052840000000    -0.0925726  
C222     C      0.775140000000     0.631450000000     0.006630000000    -0.0441756  
C223     C      0.806420000000     0.660450000000     0.023400000000    -0.0793356  
C224     C      0.734510000000     0.577530000000     0.034640000000     0.0129312  
Cu1      Cu     0.613060000000     0.001140000000     0.001570000000     0.848783   
Cu2      Cu     0.094650000000     0.502860000000     0.095490000000     0.844949   
Cu3      Cu     0.601450000000     0.957900000000     0.521200000000     0.844199   
Cu4      Cu     0.097440000000     0.483490000000     0.608320000000     0.843654   
Cu5      Cu     0.398030000000     0.281740000000     0.042560000000     1.99728    
Cu6      Cu     0.331330000000     0.228560000000     0.051450000000     1.90791    
Cu7      Cu     0.395370000000     0.236010000000     0.549440000000     2.09103    
Cu8      Cu     0.311950000000     0.210820000000     0.582450000000     1.41489    
Cu9      Cu     0.613320000000     0.501450000000     0.001940000000     0.848969   
Cu10     Cu     0.095480000000     0.003190000000     0.095460000000     0.844759   
Cu11     Cu     0.602710000000     0.458960000000     0.520150000000     0.84452    
Cu12     Cu     0.097150000000     0.982140000000     0.609280000000     0.845631   
Cu13     Cu     0.398250000000     0.781420000000     0.045170000000     1.99247    
Cu14     Cu     0.331570000000     0.728280000000     0.054630000000     1.90745    
Cu15     Cu     0.395430000000     0.735260000000     0.552420000000     1.97317    
Cu16     Cu     0.311900000000     0.710330000000     0.585160000000     1.93265    
Cu17     Cu     0.114230000000     0.001210000000     0.002680000000     0.848231   
Cu18     Cu     0.595640000000     0.503010000000     0.095070000000     0.844842   
Cu19     Cu     0.108800000000     0.960060000000     0.521430000000     0.84385    
Cu20     Cu     0.594160000000     0.481580000000     0.608340000000     0.844236   
Cu21     Cu     0.896740000000     0.280850000000     0.039510000000     1.98809    
Cu22     Cu     0.829830000000     0.227730000000     0.046600000000     1.91657    
Cu23     Cu     0.891520000000     0.233240000000     0.544200000000     2.09418    
Cu24     Cu     0.808920000000     0.206340000000     0.577680000000     1.40975    
Cu25     Cu     0.113890000000     0.501490000000     0.002820000000     0.848631   
Cu26     Cu     0.595410000000     0.003520000000     0.094650000000     0.844694   
Cu27     Cu     0.109540000000     0.462400000000     0.519990000000     0.844456   
Cu28     Cu     0.592510000000     0.981110000000     0.608940000000     0.845112   
Cu29     Cu     0.896710000000     0.781050000000     0.043070000000     1.98868    
Cu30     Cu     0.829750000000     0.728030000000     0.050880000000     1.91308    
Cu31     Cu     0.891010000000     0.734320000000     0.549530000000     1.64582    
Cu32     Cu     0.808060000000     0.707240000000     0.581630000000     1.48363    
H1       H      0.297740000000     0.222280000000     0.896730000000     0.0374513  
H2       H      0.304980000000     0.253420000000     0.846700000000     0.0245885  
H3       H      0.390110000000     0.178330000000     0.768630000000     0.0233155  
H4       H      0.341760000000     0.181650000000     0.733630000000     0.0370243  
H5       H      0.389090000000     0.238020000000     0.798480000000     0.0454619  
H6       H      0.339880000000     0.240850000000     0.765300000000     0.0494731  
H7       H      0.427760000000     0.217830000000     0.711930000000     0.102555   
H8       H      0.307960000000     0.191910000000     0.819380000000     0.0406777  
H9       H      0.356370000000     0.191500000000     0.854560000000     0.0456393  
H10      H      0.378330000000     0.267820000000     0.875600000000     0.102497   
H11      H      0.306770000000     0.253680000000     0.227060000000     0.0321407  
H12      H      0.338850000000     0.218850000000     0.225380000000     0.0339035  
H13      H      0.373220000000     0.235890000000     0.387240000000     0.0371203  
H14      H      0.346070000000     0.273390000000     0.389200000000     0.0299654  
H15      H      0.320950000000     0.209680000000     0.323730000000     0.0456103  
H16      H      0.292470000000     0.247020000000     0.325870000000     0.0443504  
H17      H      0.282560000000     0.223780000000     0.416370000000     0.101986   
H18      H      0.355510000000     0.282160000000     0.294410000000     0.0440358  
H19      H      0.385530000000     0.245860000000     0.293720000000     0.0448507  
H20      H      0.390030000000     0.283410000000     0.210750000000     0.104449   
H21      H      0.191710000000     0.377380000000     0.559030000000     0.0372673  
H22      H      0.234610000000     0.408990000000     0.567180000000     0.0329696  
H23      H      0.299110000000     0.335970000000     0.660010000000     0.024565   
H24      H      0.267370000000     0.302060000000     0.629370000000     0.0406974  
H25      H      0.292490000000     0.370510000000     0.576370000000     0.0444163  
H26      H      0.254060000000     0.337600000000     0.554960000000     0.0481113  
H27      H      0.351560000000     0.334720000000     0.588690000000     0.100559   
H28      H      0.211690000000     0.346860000000     0.636620000000     0.0453085  
H29      H      0.250470000000     0.380540000000     0.654260000000     0.0429508  
H30      H      0.190460000000     0.411850000000     0.661130000000     0.0981554  
H31      H      0.457040000000     0.277860000000     0.598730000000     0.0475032  
H32      H      0.506540000000     0.276180000000     0.566480000000     0.0395374  
H33      H      0.499120000000     0.380540000000     0.513410000000     0.0385982  
H34      H      0.448770000000     0.380630000000     0.544980000000     0.025491   
H35      H      0.520910000000     0.339710000000     0.580460000000     0.0513511  
H36      H      0.470330000000     0.340240000000     0.611220000000     0.0475437  
H37      H      0.483190000000     0.404440000000     0.623860000000     0.098106   
H38      H      0.435400000000     0.317990000000     0.529200000000     0.0447427  
H39      H      0.486210000000     0.316620000000     0.499500000000     0.0350925  
H40      H      0.427720000000     0.245960000000     0.537240000000    -0.634059   
H41      H      0.406330000000     0.110130000000     0.470570000000     0.0244851  
H42      H      0.438380000000     0.144960000000     0.498420000000     0.0395356  
H43      H      0.517500000000     0.071050000000     0.567090000000     0.0364516  
H44      H      0.473700000000     0.039860000000     0.564790000000     0.0334616  
H45      H      0.493980000000     0.099420000000     0.489570000000     0.0446343  
H46      H      0.454290000000     0.065450000000     0.476390000000     0.0434431  
H47      H      0.514160000000     0.034010000000     0.467700000000     0.098524   
H48      H      0.415950000000     0.077850000000     0.556240000000     0.0448455  
H49      H      0.455310000000     0.111280000000     0.573040000000     0.0476429  
H50      H      0.355510000000     0.112200000000     0.542630000000     0.0998241  
H51      H      0.205710000000     0.172400000000     0.560870000000     0.0419269  
H52      H      0.256760000000     0.164730000000     0.536470000000     0.0422669  
H53      H      0.243930000000     0.062090000000     0.595780000000     0.0272783  
H54      H      0.191050000000     0.067570000000     0.616090000000     0.0392066  
H55      H      0.237660000000     0.103270000000     0.523880000000     0.0464998  
H56      H      0.184730000000     0.109100000000     0.544020000000     0.0496343  
H57      H      0.214060000000     0.042650000000     0.508270000000     0.0985906  
H58      H      0.211950000000     0.130160000000     0.630520000000     0.0410821  
H59      H      0.264770000000     0.124010000000     0.610260000000     0.0442632  
H60      H      0.272720000000     0.207170000000     0.590090000000    -0.277229   
H61      H      0.304300000000     0.368240000000     0.073070000000     0.0278691  
H62      H      0.318910000000     0.359650000000     0.008240000000     0.0307109  
H63      H      0.204990000000     0.425020000000     0.007930000000     0.0382007  
H64      H      0.169580000000     0.387570000000     0.010000000000     0.0318269  
H65      H      0.243470000000     0.401380000000     0.086010000000     0.0457404  
H66      H      0.211120000000     0.362300000000     0.077310000000     0.0442003  
H67      H      0.165030000000     0.409180000000     0.111400000000     0.0989551  
H68      H      0.238360000000     0.358740000000     0.985460000000     0.0469862  
H69      H      0.269280000000     0.398060000000     0.994890000000     0.0417898  
H70      H      0.248980000000     0.312110000000     0.049970000000     0.104844   
H71      H      0.470480000000     0.456660000000     0.946460000000     0.0295381  
H72      H      0.510130000000     0.427540000000     0.947210000000     0.0370718  
H73      H      0.403100000000     0.358650000000     0.030560000000     0.0495249  
H74      H      0.416690000000     0.338780000000     0.970390000000     0.0493417  
H75      H      0.477620000000     0.383620000000     0.038410000000     0.0434915  
H76      H      0.489440000000     0.365850000000     0.976560000000     0.040307   
H77      H      0.422870000000     0.303090000000     0.039590000000    -0.607472   
H78      H      0.437960000000     0.399110000000     0.932720000000     0.04161    
H79      H      0.420880000000     0.415290000000     0.993400000000     0.0443261  
H80      H      0.474090000000     0.444440000000     0.051080000000     0.0988523  
H81      H      0.506420000000     0.207540000000     0.027260000000     0.0310604  
H82      H      0.498550000000     0.219690000000     0.092700000000     0.0339793  
H83      H      0.565060000000     0.116690000000     0.088730000000     0.0346428  
H84      H      0.513100000000     0.095920000000     0.088830000000     0.0351544  
H85      H      0.542000000000     0.153210000000     0.012420000000     0.0438094  
H86      H      0.489350000000     0.134610000000     0.023280000000     0.0446479  
H87      H      0.547320000000     0.095790000000     0.983870000000     0.0991162  
H88      H      0.497170000000     0.156430000000     0.117980000000     0.0451552  
H89      H      0.546730000000     0.177470000000     0.099060000000     0.0418167  
H90      H      0.435610000000     0.164680000000     0.062340000000     0.101678   
H91      H      0.256880000000     0.061170000000     0.022370000000     0.0298615  
H92      H      0.213350000000     0.083860000000     0.003040000000     0.0364013  
H93      H      0.331820000000     0.150660000000     0.052010000000     0.0525591  
H94      H      0.324450000000     0.171100000000     0.990950000000     0.0475422  
H95      H      0.251450000000     0.141960000000     0.985410000000     0.0372027  
H96      H      0.293550000000     0.114800000000     0.983570000000     0.0315718  
H97      H      0.306130000000     0.207100000000     0.053740000000    -0.566714   
H98      H      0.282360000000     0.105440000000     0.082330000000     0.0469632  
H99      H      0.235330000000     0.127090000000     0.075320000000     0.0528241  
H100     H      0.216330000000     0.068770000000     0.116480000000     0.0994481  
H101     H      0.298400000000     0.720780000000     0.899940000000     0.037322   
H102     H      0.305330000000     0.751880000000     0.849860000000     0.0242721  
H103     H      0.389920000000     0.676730000000     0.771070000000     0.0229145  
H104     H      0.341550000000     0.680420000000     0.736270000000     0.0372838  
H105     H      0.389470000000     0.736480000000     0.801160000000     0.0453789  
H106     H      0.340110000000     0.739480000000     0.768430000000     0.048772   
H107     H      0.427720000000     0.716400000000     0.714660000000     0.102561   
H108     H      0.308460000000     0.690380000000     0.822610000000     0.0401945  
H109     H      0.357030000000     0.690120000000     0.857500000000     0.045534   
H110     H      0.378960000000     0.766290000000     0.878320000000     0.102381   
H111     H      0.306910000000     0.754460000000     0.230210000000     0.0320128  
H112     H      0.338660000000     0.719440000000     0.228280000000     0.0340678  
H113     H      0.373460000000     0.736050000000     0.390130000000     0.036856   
H114     H      0.346840000000     0.773810000000     0.392230000000     0.0293575  
H115     H      0.320880000000     0.710340000000     0.326630000000     0.0454932  
H116     H      0.292850000000     0.747900000000     0.328950000000     0.0441403  
H117     H      0.282690000000     0.724820000000     0.419360000000     0.102366   
H118     H      0.356140000000     0.782650000000     0.297360000000     0.0439746  
H119     H      0.385750000000     0.746120000000     0.296470000000     0.0449203  
H120     H      0.390030000000     0.784000000000     0.213400000000     0.104405   
H121     H      0.190430000000     0.874560000000     0.562730000000     0.0368589  
H122     H      0.232940000000     0.906710000000     0.568660000000     0.0332582  
H123     H      0.300200000000     0.836310000000     0.663150000000     0.0234491  
H124     H      0.268580000000     0.801490000000     0.634650000000     0.0386556  
H125     H      0.291730000000     0.869070000000     0.578220000000     0.0446227  
H126     H      0.253500000000     0.835380000000     0.559010000000     0.0475184  
H127     H      0.352170000000     0.834120000000     0.592210000000     0.10054    
H128     H      0.212160000000     0.845730000000     0.641090000000     0.0444508  
H129     H      0.250650000000     0.880110000000     0.656530000000     0.0428095  
H130     H      0.189510000000     0.910290000000     0.663500000000     0.0980594  
H131     H      0.457180000000     0.777250000000     0.601570000000     0.0475472  
H132     H      0.506680000000     0.775700000000     0.569280000000     0.0394381  
H133     H      0.497550000000     0.879690000000     0.514690000000     0.0386446  
H134     H      0.447230000000     0.879390000000     0.546470000000     0.025391   
H135     H      0.520280000000     0.839530000000     0.582230000000     0.0513267  
H136     H      0.469690000000     0.839660000000     0.613080000000     0.0474559  
H137     H      0.481250000000     0.904230000000     0.624670000000     0.098069   
H138     H      0.435030000000     0.816690000000     0.531180000000     0.0457835  
H139     H      0.485960000000     0.815530000000     0.501740000000     0.0359122  
H140     H      0.427900000000     0.745010000000     0.540350000000    -0.591845   
H141     H      0.405070000000     0.609100000000     0.472610000000     0.0241219  
H142     H      0.436990000000     0.644360000000     0.499420000000     0.0392064  
H143     H      0.518030000000     0.571740000000     0.568130000000     0.0363615  
H144     H      0.474740000000     0.540060000000     0.566220000000     0.0335814  
H145     H      0.493400000000     0.599810000000     0.490890000000     0.0446617  
H146     H      0.454250000000     0.565400000000     0.478070000000     0.0434793  
H147     H      0.514880000000     0.535080000000     0.468580000000     0.0985683  
H148     H      0.416020000000     0.577400000000     0.558250000000     0.0449474  
H149     H      0.454870000000     0.611340000000     0.574550000000     0.0477676  
H150     H      0.354530000000     0.611460000000     0.544500000000     0.101304   
H151     H      0.200930000000     0.673810000000     0.563890000000     0.0394345  
H152     H      0.251300000000     0.668620000000     0.535770000000     0.0487102  
H153     H      0.244090000000     0.565090000000     0.595880000000     0.0268981  
H154     H      0.191120000000     0.569500000000     0.617070000000     0.0384937  
H155     H      0.235290000000     0.606150000000     0.523910000000     0.0475845  
H156     H      0.182800000000     0.611240000000     0.546380000000     0.0501431  
H157     H      0.214330000000     0.545330000000     0.508910000000     0.0985553  
H158     H      0.212840000000     0.632040000000     0.632340000000     0.0353973  
H159     H      0.264990000000     0.627660000000     0.608050000000     0.0438641  
H160     H      0.279400000000     0.700760000000     0.597320000000    -0.578792   
H161     H      0.304670000000     0.868060000000     0.073750000000     0.0278915  
H162     H      0.318960000000     0.858980000000     0.008990000000     0.0306309  
H163     H      0.205330000000     0.924660000000     0.008380000000     0.0381608  
H164     H      0.169790000000     0.887310000000     0.011080000000     0.031788   
H165     H      0.244010000000     0.901360000000     0.086530000000     0.0457811  
H166     H      0.211450000000     0.862310000000     0.078570000000     0.0442261  
H167     H      0.165770000000     0.909540000000     0.112250000000     0.0989729  
H168     H      0.238290000000     0.858000000000     0.986700000000     0.0468798  
H169     H      0.269350000000     0.897350000000     0.995260000000     0.0417589  
H170     H      0.249140000000     0.811780000000     0.051650000000     0.10473    
H171     H      0.470160000000     0.955920000000     0.946950000000     0.0295456  
H172     H      0.509890000000     0.926890000000     0.948120000000     0.0371096  
H173     H      0.403130000000     0.858270000000     0.032430000000     0.0495373  
H174     H      0.416720000000     0.838180000000     0.972450000000     0.049285   
H175     H      0.477550000000     0.883460000000     0.039980000000     0.0435213  
H176     H      0.489430000000     0.865400000000     0.978350000000     0.0403718  
H177     H      0.423060000000     0.802790000000     0.041980000000    -0.605549   
H178     H      0.437740000000     0.898270000000     0.934110000000     0.0415954  
H179     H      0.420720000000     0.914780000000     0.994600000000     0.044318   
H180     H      0.473900000000     0.944450000000     0.051740000000     0.0988611  
H181     H      0.506570000000     0.707590000000     0.031190000000     0.0312665  
H182     H      0.498840000000     0.719370000000     0.096810000000     0.0338298  
H183     H      0.565480000000     0.616430000000     0.091160000000     0.0346013  
H184     H      0.513550000000     0.595600000000     0.091280000000     0.0351799  
H185     H      0.542040000000     0.653310000000     0.015410000000     0.0438246  
H186     H      0.489460000000     0.634630000000     0.026490000000     0.0447342  
H187     H      0.547580000000     0.596190000000     0.986140000000     0.0991517  
H188     H      0.497740000000     0.656030000000     0.121370000000     0.045101   
H189     H      0.547200000000     0.677190000000     0.102270000000     0.0418287  
H190     H      0.435860000000     0.664510000000     0.066750000000     0.10165    
H191     H      0.256310000000     0.561070000000     0.024360000000     0.0298943  
H192     H      0.213140000000     0.584210000000     0.005160000000     0.0362768  
H193     H      0.331830000000     0.650120000000     0.056620000000     0.0523647  
H194     H      0.325520000000     0.670590000000     0.995360000000     0.0473779  
H195     H      0.252360000000     0.641890000000     0.988290000000     0.0371005  
H196     H      0.294260000000     0.614530000000     0.987140000000     0.0315199  
H197     H      0.306370000000     0.706820000000     0.057130000000    -0.566253   
H198     H      0.281790000000     0.604780000000     0.085450000000     0.0469804  
H199     H      0.235150000000     0.626880000000     0.077990000000     0.0527845  
H200     H      0.215310000000     0.568350000000     0.118350000000     0.0994189  
H201     H      0.796360000000     0.224130000000     0.892060000000     0.0376014  
H202     H      0.805370000000     0.255020000000     0.841990000000     0.0243192  
H203     H      0.887740000000     0.177720000000     0.764580000000     0.0234905  
H204     H      0.839030000000     0.181160000000     0.730420000000     0.0374034  
H205     H      0.888010000000     0.237470000000     0.793840000000     0.0451946  
H206     H      0.838860000000     0.240940000000     0.760820000000     0.0489909  
H207     H      0.924900000000     0.217300000000     0.706930000000     0.102435   
H208     H      0.805860000000     0.192880000000     0.815700000000     0.0407277  
H209     H      0.854280000000     0.191760000000     0.850680000000     0.0457259  
H210     H      0.878540000000     0.267820000000     0.871900000000     0.102234   
H211     H      0.803110000000     0.251940000000     0.222810000000     0.0318858  
H212     H      0.834540000000     0.216750000000     0.219360000000     0.034273   
H213     H      0.869260000000     0.229880000000     0.381530000000     0.0371258  
H214     H      0.843310000000     0.267890000000     0.385360000000     0.0308458  
H215     H      0.816450000000     0.205750000000     0.317260000000     0.0454981  
H216     H      0.788700000000     0.243420000000     0.321500000000     0.0444649  
H217     H      0.779080000000     0.217630000000     0.411030000000     0.10192    
H218     H      0.852150000000     0.278520000000     0.291310000000     0.0440272  
H219     H      0.881600000000     0.241930000000     0.288730000000     0.0449961  
H220     H      0.886060000000     0.281730000000     0.207620000000     0.104365   
H221     H      0.680300000000     0.369870000000     0.558870000000     0.036692   
H222     H      0.723250000000     0.401760000000     0.562440000000     0.0336258  
H223     H      0.792230000000     0.330800000000     0.654400000000     0.0245912  
H224     H      0.761000000000     0.296330000000     0.624520000000     0.0407417  
H225     H      0.782730000000     0.364930000000     0.570500000000     0.0446869  
H226     H      0.744290000000     0.331420000000     0.551280000000     0.0480503  
H227     H      0.843290000000     0.330860000000     0.581190000000     0.101006   
H228     H      0.704500000000     0.340690000000     0.635210000000     0.0448504  
H229     H      0.743090000000     0.375120000000     0.650060000000     0.0431008  
H230     H      0.682410000000     0.405460000000     0.659570000000     0.0980493  
H231     H      0.945640000000     0.279090000000     0.591690000000     0.0464736  
H232     H      0.997770000000     0.271200000000     0.572020000000     0.0414783  
H233     H      0.019100000000     0.373980000000     0.513900000000     0.0390061  
H234     H      0.965720000000     0.381780000000     0.528510000000     0.0279527  
H235     H      0.018390000000     0.333480000000     0.588350000000     0.0502082  
H236     H      0.964910000000     0.341380000000     0.602700000000     0.0469479  
H237     H      0.992930000000     0.400240000000     0.619410000000     0.0980697  
H238     H      0.941690000000     0.319170000000     0.516200000000     0.0403323  
H239     H      0.995110000000     0.312170000000     0.499690000000     0.0349778  
H240     H      0.923430000000     0.243750000000     0.531220000000    -0.63557    
H241     H      0.908820000000     0.108700000000     0.468160000000     0.0250633  
H242     H      0.939900000000     0.142780000000     0.499320000000     0.0399477  
H243     H      0.016500000000     0.067600000000     0.568540000000     0.0371143  
H244     H      0.973300000000     0.036130000000     0.561700000000     0.0329562  
H245     H      0.995950000000     0.097670000000     0.490990000000     0.0448454  
H246     H      0.957020000000     0.063910000000     0.474030000000     0.0433467  
H247     H      0.016660000000     0.032150000000     0.467220000000     0.0986397  
H248     H      0.915640000000     0.074210000000     0.552280000000     0.0444625  
H249     H      0.954150000000     0.107260000000     0.573000000000     0.0472558  
H250     H      0.856420000000     0.108830000000     0.540060000000     0.0996804  
H251     H      0.703680000000     0.165750000000     0.557000000000     0.0418881  
H252     H      0.754910000000     0.158960000000     0.532180000000     0.0418669  
H253     H      0.745290000000     0.056220000000     0.588670000000     0.0266264  
H254     H      0.693710000000     0.060950000000     0.614350000000     0.039205   
H255     H      0.734310000000     0.097610000000     0.519060000000     0.0464524  
H256     H      0.682230000000     0.102470000000     0.543210000000     0.0501185  
H257     H      0.711940000000     0.035600000000     0.505160000000     0.098598   
H258     H      0.712490000000     0.124000000000     0.627480000000     0.0415245  
H259     H      0.764690000000     0.118210000000     0.604540000000     0.0442553  
H260     H      0.769730000000     0.201760000000     0.585530000000    -0.274868   
H261     H      0.803470000000     0.367430000000     0.068980000000     0.028092   
H262     H      0.817690000000     0.359040000000     0.003940000000     0.03064    
H263     H      0.703590000000     0.424350000000     0.005000000000     0.0382149  
H264     H      0.668200000000     0.386910000000     0.007680000000     0.0317618  
H265     H      0.742740000000     0.400710000000     0.082710000000     0.0458266  
H266     H      0.710430000000     0.361610000000     0.074090000000     0.0442538  
H267     H      0.664710000000     0.408570000000     0.109110000000     0.0989075  
H268     H      0.737070000000     0.358440000000     0.981800000000     0.0469064  
H269     H      0.768120000000     0.397680000000     0.991480000000     0.0418369  
H270     H      0.747780000000     0.311450000000     0.045180000000     0.104799   
H271     H      0.973700000000     0.455020000000     0.943520000000     0.0296554  
H272     H      0.012830000000     0.425540000000     0.946540000000     0.0368483  
H273     H      0.902650000000     0.357790000000     0.026140000000     0.049755   
H274     H      0.917940000000     0.337510000000     0.967060000000     0.0496727  
H275     H      0.977190000000     0.382340000000     0.037130000000     0.0418937  
H276     H      0.990580000000     0.364230000000     0.976120000000     0.0388394  
H277     H      0.921700000000     0.302160000000     0.037190000000    -0.604099   
H278     H      0.940650000000     0.397670000000     0.929600000000     0.0420584  
H279     H      0.922330000000     0.414360000000     0.989320000000     0.0448441  
H280     H      0.974800000000     0.442880000000     0.048780000000     0.0989303  
H281     H      0.005510000000     0.206560000000     0.026610000000     0.0311854  
H282     H      0.996020000000     0.218490000000     0.091770000000     0.0340952  
H283     H      0.062990000000     0.115700000000     0.089550000000     0.0347843  
H284     H      0.011150000000     0.094730000000     0.087960000000     0.035092   
H285     H      0.041270000000     0.152390000000     0.012770000000     0.0438597  
H286     H      0.988510000000     0.133550000000     0.021830000000     0.0444059  
H287     H      0.047020000000     0.095000000000     0.984040000000     0.0991802  
H288     H      0.993900000000     0.155100000000     0.116690000000     0.0449725  
H289     H      0.043930000000     0.176220000000     0.099840000000     0.0417866  
H290     H      0.933830000000     0.163630000000     0.058510000000     0.101602   
H291     H      0.757870000000     0.059990000000     0.019870000000     0.0297127  
H292     H      0.713840000000     0.081620000000     0.999060000000     0.0381564  
H293     H      0.830890000000     0.150440000000     0.044840000000     0.0529149  
H294     H      0.822070000000     0.170670000000     0.983940000000     0.0477287  
H295     H      0.749590000000     0.140510000000     0.980290000000     0.0371124  
H296     H      0.792180000000     0.113840000000     0.978070000000     0.0314974  
H297     H      0.804580000000     0.206280000000     0.048190000000    -0.569714   
H298     H      0.782380000000     0.105550000000     0.077570000000     0.0468213  
H299     H      0.734580000000     0.126140000000     0.070410000000     0.0528141  
H300     H      0.717590000000     0.067820000000     0.113280000000     0.0993778  
H301     H      0.794770000000     0.725070000000     0.896820000000     0.0375919  
H302     H      0.803910000000     0.755710000000     0.846410000000     0.0242426  
H303     H      0.884710000000     0.677170000000     0.769280000000     0.0235362  
H304     H      0.836330000000     0.681460000000     0.734790000000     0.0376112  
H305     H      0.886350000000     0.737080000000     0.798450000000     0.0452864  
H306     H      0.837390000000     0.741220000000     0.765360000000     0.0491163  
H307     H      0.923000000000     0.716490000000     0.712130000000     0.10093    
H308     H      0.803380000000     0.693580000000     0.820280000000     0.0406496  
H309     H      0.851680000000     0.691840000000     0.855330000000     0.045663   
H310     H      0.877170000000     0.768200000000     0.875690000000     0.102241   
H311     H      0.804120000000     0.752120000000     0.226670000000     0.0321605  
H312     H      0.836030000000     0.717190000000     0.224320000000     0.0340602  
H313     H      0.869910000000     0.732410000000     0.386620000000     0.038675   
H314     H      0.843070000000     0.770020000000     0.389330000000     0.0321368  
H315     H      0.817790000000     0.707050000000     0.322310000000     0.0454697  
H316     H      0.789440000000     0.744440000000     0.325290000000     0.0443175  
H317     H      0.779400000000     0.719740000000     0.415130000000     0.101882   
H318     H      0.852670000000     0.779780000000     0.294860000000     0.0445518  
H319     H      0.882590000000     0.743430000000     0.293420000000     0.0454814  
H320     H      0.887350000000     0.781940000000     0.211290000000     0.104559   
H321     H      0.678740000000     0.868680000000     0.562680000000     0.0366313  
H322     H      0.721380000000     0.900880000000     0.565380000000     0.0338406  
H323     H      0.791130000000     0.832070000000     0.660120000000     0.0245866  
H324     H      0.760680000000     0.796810000000     0.631150000000     0.0410033  
H325     H      0.781350000000     0.864750000000     0.574870000000     0.0450675  
H326     H      0.743480000000     0.830580000000     0.556660000000     0.0486482  
H327     H      0.843120000000     0.831660000000     0.588870000000     0.100382   
H328     H      0.703240000000     0.840630000000     0.639870000000     0.0448212  
H329     H      0.741330000000     0.875550000000     0.653970000000     0.0431658  
H330     H      0.680110000000     0.905210000000     0.662360000000     0.0981165  
H331     H      0.947870000000     0.777760000000     0.600940000000     0.039142   
H332     H      0.999770000000     0.770990000000     0.579050000000     0.0351087  
H333     H      0.016170000000     0.872950000000     0.517000000000     0.0394357  
H334     H      0.962890000000     0.879780000000     0.534010000000     0.0282428  
H335     H      0.019190000000     0.833410000000     0.592080000000     0.0495449  
H336     H      0.966000000000     0.840520000000     0.609240000000     0.0466298  
H337     H      0.991240000000     0.900420000000     0.622370000000     0.0980711  
H338     H      0.940120000000     0.816790000000     0.524700000000     0.0496672  
H339     H      0.993150000000     0.810490000000     0.505440000000     0.0409917  
H340     H      0.921350000000     0.750380000000     0.530530000000    -0.381042   
H341     H      0.908120000000     0.610630000000     0.470270000000     0.0256464  
H342     H      0.939220000000     0.644280000000     0.502420000000     0.0394822  
H343     H      0.015550000000     0.568410000000     0.569860000000     0.0370372  
H344     H      0.972620000000     0.536860000000     0.561600000000     0.0328795  
H345     H      0.995310000000     0.599440000000     0.493030000000     0.0448352  
H346     H      0.956580000000     0.565810000000     0.474870000000     0.0433661  
H347     H      0.016500000000     0.534300000000     0.467410000000     0.0985918  
H348     H      0.914760000000     0.575010000000     0.553160000000     0.0443527  
H349     H      0.953090000000     0.607790000000     0.575190000000     0.0469918  
H350     H      0.855640000000     0.609990000000     0.542300000000     0.0995296  
H351     H      0.702560000000     0.666360000000     0.559930000000     0.0421139  
H352     H      0.753850000000     0.660680000000     0.534290000000     0.0416434  
H353     H      0.747110000000     0.557320000000     0.587250000000     0.0264142  
H354     H      0.695860000000     0.560950000000     0.614690000000     0.0391603  
H355     H      0.734020000000     0.599350000000     0.519530000000     0.0466024  
H356     H      0.682120000000     0.603070000000     0.545120000000     0.0503295  
H357     H      0.713040000000     0.536890000000     0.504490000000     0.0986003  
H358     H      0.713040000000     0.624050000000     0.629220000000     0.0411407  
H359     H      0.765150000000     0.619240000000     0.605100000000     0.043955   
H360     H      0.768820000000     0.702640000000     0.588840000000    -0.295632   
H361     H      0.803320000000     0.868000000000     0.072290000000     0.0280576  
H362     H      0.817780000000     0.859060000000     0.007520000000     0.030763   
H363     H      0.703440000000     0.924140000000     0.006470000000     0.0381954  
H364     H      0.668140000000     0.886660000000     0.009840000000     0.0317574  
H365     H      0.742490000000     0.901290000000     0.084900000000     0.0458641  
H366     H      0.710310000000     0.862060000000     0.076960000000     0.044221   
H367     H      0.664440000000     0.909220000000     0.110750000000     0.0989901  
H368     H      0.737220000000     0.858140000000     0.984890000000     0.0469408  
H369     H      0.768150000000     0.897510000000     0.993930000000     0.0418602  
H370     H      0.747820000000     0.811810000000     0.049740000000     0.104797   
H371     H      0.973620000000     0.954730000000     0.945060000000     0.0298274  
H372     H      0.012640000000     0.925150000000     0.948080000000     0.0370208  
H373     H      0.902650000000     0.858000000000     0.029110000000     0.0492945  
H374     H      0.917680000000     0.837420000000     0.970170000000     0.0493945  
H375     H      0.977280000000     0.882500000000     0.039470000000     0.0433222  
H376     H      0.990390000000     0.864080000000     0.978570000000     0.0402517  
H377     H      0.921670000000     0.802350000000     0.040550000000    -0.604183   
H378     H      0.940300000000     0.897370000000     0.932000000000     0.0416066  
H379     H      0.922360000000     0.914410000000     0.991670000000     0.0444216  
H380     H      0.975270000000     0.943110000000     0.050430000000     0.0989436  
H381     H      0.005200000000     0.706680000000     0.028700000000     0.0311928  
H382     H      0.996300000000     0.718520000000     0.094050000000     0.0340877  
H383     H      0.062560000000     0.615460000000     0.090780000000     0.0347444  
H384     H      0.010660000000     0.594610000000     0.088950000000     0.0351191  
H385     H      0.040870000000     0.652480000000     0.014210000000     0.0437908  
H386     H      0.988060000000     0.633820000000     0.023530000000     0.0444074  
H387     H      0.046680000000     0.595330000000     0.985040000000     0.0991396  
H388     H      0.994200000000     0.655060000000     0.118610000000     0.0450029  
H389     H      0.044150000000     0.676140000000     0.101290000000     0.041792   
H390     H      0.933700000000     0.663800000000     0.061440000000     0.101557   
H391     H      0.758020000000     0.560450000000     0.021280000000     0.02948    
H392     H      0.713860000000     0.582160000000     0.001170000000     0.03674    
H393     H      0.830750000000     0.650600000000     0.048540000000     0.0529278  
H394     H      0.822040000000     0.671350000000     0.988070000000     0.0476136  
H395     H      0.749390000000     0.641440000000     0.983960000000     0.0371381  
H396     H      0.791940000000     0.614780000000     0.980750000000     0.0314327  
H397     H      0.804490000000     0.706580000000     0.052690000000    -0.568017   
H398     H      0.782340000000     0.605400000000     0.080140000000     0.0469207  
H399     H      0.734440000000     0.625940000000     0.073610000000     0.052957   
H400     H      0.717750000000     0.567140000000     0.114990000000     0.0994731  
N1       N      0.395880000000     0.211260000000     0.705030000000    -0.244857   
N2       N      0.356660000000     0.252450000000     0.897200000000    -0.247917   
N3       N      0.314010000000     0.231180000000     0.424730000000    -0.243778   
N4       N      0.367480000000     0.265110000000     0.196440000000    -0.246646   
N5       N      0.328300000000     0.315240000000     0.596520000000    -0.242855   
N6       N      0.185740000000     0.411610000000     0.621090000000    -0.217981   
N7       N      0.498920000000     0.403420000000     0.588510000000    -0.219266   
N8       N      0.455210000000     0.253570000000     0.525280000000     0.0443135  
N9       N      0.519460000000     0.034470000000     0.507630000000    -0.21819    
N10      N      0.378680000000     0.131670000000     0.534440000000    -0.243843   
N11      N      0.197870000000     0.042620000000     0.543410000000    -0.218861   
N12      N      0.255850000000     0.189780000000     0.609090000000    -0.0852835  
N13      N      0.165900000000     0.419750000000     0.074340000000    -0.217502   
N14      N      0.280640000000     0.320410000000     0.044850000000    -0.245722   
N15      N      0.444820000000     0.320910000000     0.037730000000     0.0407236  
N16      N      0.495210000000     0.448330000000     0.020310000000    -0.219608   
N17      N      0.549270000000     0.087710000000     0.022240000000    -0.218836   
N18      N      0.447650000000     0.189910000000     0.059210000000    -0.249466   
N19      N      0.287410000000     0.187020000000     0.052550000000     0.0311963  
N20      N      0.209050000000     0.062300000000     0.078100000000    -0.220435   
N21      N      0.395840000000     0.709830000000     0.707700000000    -0.248242   
N22      N      0.357210000000     0.751110000000     0.900100000000    -0.247739   
N23      N      0.314260000000     0.731810000000     0.427680000000    -0.248096   
N24      N      0.367540000000     0.765600000000     0.199230000000    -0.246505   
N25      N      0.328860000000     0.814680000000     0.600030000000    -0.247518   
N26      N      0.184770000000     0.909790000000     0.623470000000    -0.217955   
N27      N      0.497190000000     0.902950000000     0.589510000000    -0.219265   
N28      N      0.455490000000     0.752450000000     0.528550000000     0.0339695  
N29      N      0.520250000000     0.535310000000     0.508490000000    -0.21812    
N30      N      0.377740000000     0.630930000000     0.536460000000    -0.24714    
N31      N      0.197980000000     0.545090000000     0.543960000000    -0.218944   
N32      N      0.251790000000     0.693280000000     0.609000000000     0.0301839  
N33      N      0.166480000000     0.919870000000     0.075030000000    -0.217502   
N34      N      0.280810000000     0.820050000000     0.046450000000    -0.245613   
N35      N      0.444960000000     0.820630000000     0.039930000000     0.0403156  
N36      N      0.495000000000     0.948130000000     0.020910000000    -0.219572   
N37      N      0.549530000000     0.587830000000     0.024360000000    -0.21879    
N38      N      0.447910000000     0.689720000000     0.063230000000    -0.249341   
N39      N      0.287710000000     0.686710000000     0.056080000000     0.0310773  
N40      N      0.208280000000     0.562110000000     0.079820000000    -0.220422   
N41      N      0.893120000000     0.210100000000     0.700300000000    -0.244906   
N42      N      0.856410000000     0.252670000000     0.893170000000    -0.24789    
N43      N      0.810360000000     0.225570000000     0.419540000000    -0.243788   
N44      N      0.863930000000     0.263350000000     0.192590000000    -0.246767   
N45      N      0.820940000000     0.310870000000     0.589890000000    -0.242566   
N46      N      0.677060000000     0.405400000000     0.619660000000    -0.217917   
N47      N      0.009370000000     0.400480000000     0.584430000000    -0.218674   
N48      N      0.950670000000     0.252820000000     0.520370000000     0.0463515  
N49      N      0.021560000000     0.032670000000     0.507230000000    -0.217973   
N50      N      0.879080000000     0.128680000000     0.531810000000    -0.243303   
N51      N      0.696260000000     0.036530000000     0.540560000000    -0.218934   
N52      N      0.753660000000     0.184010000000     0.604780000000    -0.086283   
N53      N      0.665230000000     0.419160000000     0.072060000000    -0.217451   
N54      N      0.779480000000     0.319760000000     0.040460000000    -0.245463   
N55      N      0.943810000000     0.319870000000     0.036040000000     0.0400162  
N56      N      0.996360000000     0.446970000000     0.018520000000    -0.21977    
N57      N      0.048690000000     0.086920000000     0.022440000000    -0.218873   
N58      N      0.945940000000     0.188880000000     0.056240000000    -0.249481   
N59      N      0.785790000000     0.186260000000     0.046490000000     0.0321164  
N60      N      0.709680000000     0.061360000000     0.075070000000    -0.220298   
N61      N      0.891190000000     0.709630000000     0.705170000000    -0.241854   
N62      N      0.855170000000     0.753090000000     0.897200000000    -0.247891   
N63      N      0.810650000000     0.727600000000     0.423870000000    -0.239076   
N64      N      0.864960000000     0.763670000000     0.196530000000    -0.246597   
N65      N      0.820570000000     0.811650000000     0.596580000000    -0.238404   
N66      N      0.675090000000     0.904900000000     0.622390000000    -0.217956   
N67      N      0.007730000000     0.899910000000     0.587480000000    -0.218624   
N68      N      0.951610000000     0.750580000000     0.530620000000    -0.0522363  
N69      N      0.021310000000     0.534420000000     0.507430000000    -0.21789    
N70      N      0.878320000000     0.629900000000     0.534480000000    -0.240204   
N71      N      0.697530000000     0.537550000000     0.540040000000    -0.218921   
N72      N      0.752480000000     0.684830000000     0.607640000000    -0.0831649  
N73      N      0.664980000000     0.919490000000     0.073490000000    -0.217581   
N74      N      0.779510000000     0.820060000000     0.044670000000    -0.245479   
N75      N      0.943760000000     0.820080000000     0.039220000000     0.0397714  
N76      N      0.996670000000     0.946980000000     0.019960000000    -0.219647   
N77      N      0.048210000000     0.587030000000     0.023340000000    -0.21889    
N78      N      0.945860000000     0.689040000000     0.059040000000    -0.249529   
N79      N      0.785780000000     0.686510000000     0.050940000000     0.0316019  
N80      N      0.709850000000     0.561070000000     0.076650000000    -0.220466   
O1       O      0.143980000000     0.460040000000     0.020050000000    -0.402985   
O2       O      0.582100000000     0.043100000000     0.993060000000    -0.403711   
O3       O      0.166260000000     0.031300000000     0.022010000000    -0.405258   
O4       O      0.558420000000     0.472700000000     0.992340000000    -0.402507   
O5       O      0.541340000000     0.475720000000     0.075890000000    -0.404917   
O6       O      0.150630000000     0.031270000000     0.106230000000    -0.405323   
O7       O      0.568490000000     0.046790000000     0.077520000000    -0.399279   
O8       O      0.124820000000     0.459980000000     0.103090000000    -0.399798   
O9       O      0.150520000000     0.432260000000     0.552640000000    -0.400076   
O10      O      0.562170000000     0.992200000000     0.496770000000    -0.402249   
O11      O      0.155970000000     0.997380000000     0.514850000000    -0.402959   
O12      O      0.552430000000     0.425770000000     0.536720000000    -0.401582   
O13      O      0.544660000000     0.446520000000     0.616050000000    -0.404308   
O14      O      0.145620000000     0.017250000000     0.594160000000    -0.402572   
O15      O      0.553990000000     0.013090000000     0.575960000000    -0.40081    
O16      O      0.139250000000     0.451100000000     0.632380000000    -0.402684   
O17      O      0.389830000000     0.271570000000     0.970140000000    -0.62159    
O18      O      0.391150000000     0.279090000000     0.116530000000    -0.61728    
O19      O      0.432550000000     0.244450000000     0.048690000000    -0.612179   
O20      O      0.348270000000     0.306680000000     0.041050000000    -0.612612   
O21      O      0.297040000000     0.266240000000     0.052140000000    -0.590813   
O22      O      0.381080000000     0.204200000000     0.054280000000    -0.626948   
O23      O      0.338910000000     0.239050000000     0.124420000000    -0.589379   
O24      O      0.334420000000     0.234920000000     0.977210000000    -0.612186   
O25      O      0.365880000000     0.237600000000     0.484820000000    -0.616856   
O26      O      0.405560000000     0.227270000000     0.621710000000    -0.621269   
O27      O      0.397800000000     0.188240000000     0.536480000000    -0.609629   
O28      O      0.372440000000     0.277890000000     0.567670000000    -0.618287   
O29      O      0.309400000000     0.258630000000     0.594740000000    -0.528669   
O30      O      0.335070000000     0.168930000000     0.564690000000    -0.547874   
O31      O      0.341830000000     0.208620000000     0.647290000000    -0.539868   
O32      O      0.302320000000     0.217520000000     0.509040000000    -0.534214   
O33      O      0.144350000000     0.959830000000     0.020300000000    -0.402779   
O34      O      0.582350000000     0.543460000000     0.994300000000    -0.403818   
O35      O      0.165790000000     0.531490000000     0.022960000000    -0.405381   
O36      O      0.558160000000     0.972330000000     0.992510000000    -0.402566   
O37      O      0.541110000000     0.976030000000     0.075980000000    -0.404786   
O38      O      0.149700000000     0.530900000000     0.107050000000    -0.405503   
O39      O      0.568740000000     0.546460000000     0.078850000000    -0.399003   
O40      O      0.125620000000     0.960340000000     0.103470000000    -0.399658   
O41      O      0.149560000000     0.929980000000     0.554670000000    -0.400191   
O42      O      0.563230000000     0.493340000000     0.496640000000    -0.402368   
O43      O      0.156380000000     0.500010000000     0.514410000000    -0.403569   
O44      O      0.551030000000     0.924870000000     0.537870000000    -0.401577   
O45      O      0.542840000000     0.946200000000     0.616740000000    -0.40431    
O46      O      0.145590000000     0.519170000000     0.594050000000    -0.40159    
O47      O      0.555290000000     0.513670000000     0.576240000000    -0.400267   
O48      O      0.138560000000     0.949590000000     0.634020000000    -0.402729   
O49      O      0.390240000000     0.770760000000     0.972860000000    -0.620478   
O50      O      0.391270000000     0.779190000000     0.119190000000    -0.616182   
O51      O      0.432820000000     0.744200000000     0.051920000000    -0.611044   
O52      O      0.348440000000     0.806300000000     0.043040000000    -0.612154   
O53      O      0.297230000000     0.765940000000     0.054720000000    -0.59066    
O54      O      0.381340000000     0.703980000000     0.058010000000    -0.626779   
O55      O      0.339050000000     0.739160000000     0.127480000000    -0.588919   
O56      O      0.334770000000     0.734210000000     0.980330000000    -0.612159   
O57      O      0.366240000000     0.737340000000     0.487700000000    -0.615558   
O58      O      0.405530000000     0.726350000000     0.624620000000    -0.619686   
O59      O      0.397180000000     0.687430000000     0.539210000000    -0.60753    
O60      O      0.372770000000     0.777220000000     0.570890000000    -0.617791   
O61      O      0.309620000000     0.758130000000     0.597780000000    -0.607233   
O62      O      0.334220000000     0.668240000000     0.566910000000    -0.609875   
O63      O      0.341840000000     0.707340000000     0.649880000000    -0.604395   
O64      O      0.302450000000     0.717900000000     0.511880000000    -0.608979   
O65      O      0.642980000000     0.459630000000     0.018340000000    -0.402872   
O66      O      0.082650000000     0.042800000000     0.993770000000    -0.403759   
O67      O      0.665720000000     0.030720000000     0.019890000000    -0.405868   
O68      O      0.059590000000     0.472130000000     0.991960000000    -0.402319   
O69      O      0.041100000000     0.474960000000     0.075060000000    -0.404962   
O70      O      0.651090000000     0.031060000000     0.104360000000    -0.405298   
O71      O      0.068000000000     0.046180000000     0.078000000000    -0.398963   
O72      O      0.625120000000     0.459750000000     0.101820000000    -0.399858   
O73      O      0.641810000000     0.427030000000     0.552100000000    -0.400486   
O74      O      0.067310000000     0.992520000000     0.496690000000    -0.402047   
O75      O      0.650860000000     0.993090000000     0.513240000000    -0.40321    
O76      O      0.061450000000     0.426700000000     0.534240000000    -0.40151    
O77      O      0.050580000000     0.445840000000     0.613870000000    -0.403456   
O78      O      0.643020000000     0.013970000000     0.592470000000    -0.402511   
O79      O      0.056630000000     0.012350000000     0.575990000000    -0.400782   
O80      O      0.633550000000     0.447030000000     0.631830000000    -0.402247   
O81      O      0.889340000000     0.270980000000     0.966780000000    -0.619577   
O82      O      0.888660000000     0.277900000000     0.113330000000    -0.615742   
O83      O      0.931090000000     0.243520000000     0.046240000000    -0.611767   
O84      O      0.847130000000     0.305980000000     0.037320000000    -0.610348   
O85      O      0.795730000000     0.265540000000     0.047470000000    -0.59129    
O86      O      0.879490000000     0.203280000000     0.049670000000    -0.628289   
O87      O      0.836550000000     0.237630000000     0.119760000000    -0.591456   
O88      O      0.833450000000     0.234720000000     0.972640000000    -0.614335   
O89      O      0.862050000000     0.233170000000     0.479560000000    -0.617727   
O90      O      0.902170000000     0.225320000000     0.616580000000    -0.623385   
O91      O      0.896080000000     0.185590000000     0.532400000000    -0.607441   
O92      O      0.866530000000     0.274580000000     0.561120000000    -0.616789   
O93      O      0.804420000000     0.253940000000     0.589450000000    -0.527683   
O94      O      0.833800000000     0.165080000000     0.560620000000    -0.547402   
O95      O      0.839000000000     0.205560000000     0.642620000000    -0.538773   
O96      O      0.798850000000     0.212430000000     0.504140000000    -0.532929   
O97      O      0.642720000000     0.959460000000     0.018870000000    -0.402738   
O98      O      0.082290000000     0.543090000000     0.994260000000    -0.403935   
O99      O      0.665960000000     0.530880000000     0.020840000000    -0.405694   
O100     O      0.059820000000     0.971850000000     0.992620000000    -0.402106   
O101     O      0.041790000000     0.975220000000     0.075820000000    -0.404814   
O102     O      0.651300000000     0.530440000000     0.105330000000    -0.405422   
O103     O      0.067230000000     0.545930000000     0.078440000000    -0.399139   
O104     O      0.624900000000     0.960330000000     0.102330000000    -0.399874   
O105     O      0.640320000000     0.926130000000     0.554070000000    -0.400289   
O106     O      0.067700000000     0.494830000000     0.495950000000    -0.401902   
O107     O      0.652020000000     0.494280000000     0.512340000000    -0.403337   
O108     O      0.060350000000     0.924830000000     0.536720000000    -0.401245   
O109     O      0.049820000000     0.945040000000     0.615780000000    -0.404415   
O110     O      0.644490000000     0.514640000000     0.591950000000    -0.402436   
O111     O      0.056510000000     0.513640000000     0.575730000000    -0.400677   
O112     O      0.631600000000     0.946650000000     0.633390000000    -0.402622   
O113     O      0.888860000000     0.771180000000     0.970410000000    -0.61941    
O114     O      0.889150000000     0.778090000000     0.116980000000    -0.615785   
O115     O      0.931080000000     0.743700000000     0.049250000000    -0.611882   
O116     O      0.847100000000     0.806190000000     0.041160000000    -0.610587   
O117     O      0.795700000000     0.765850000000     0.052090000000    -0.590702   
O118     O      0.879420000000     0.703560000000     0.053400000000    -0.628354   
O119     O      0.836910000000     0.737970000000     0.124000000000    -0.590407   
O120     O      0.832810000000     0.735140000000     0.976900000000    -0.613693   
O121     O      0.862000000000     0.734830000000     0.484500000000    -0.544923   
O122     O      0.900910000000     0.725450000000     0.621810000000    -0.569597   
O123     O      0.895340000000     0.686790000000     0.536310000000    -0.553503   
O124     O      0.866340000000     0.775540000000     0.567750000000    -0.548645   
O125     O      0.803680000000     0.754780000000     0.594130000000    -0.523628   
O126     O      0.833010000000     0.666070000000     0.564030000000    -0.545412   
O127     O      0.837450000000     0.705860000000     0.646940000000    -0.537719   
O128     O      0.798620000000     0.713960000000     0.508150000000    -0.528636   


