data_structure

_audit_creation_method RASPA-1.0
_audit_creation_date 2023-5-23
_audit_author_name 'Poobodin Mano'

_cell_length_a    32.4874
_cell_length_b    32.492
_cell_length_c    43.4738
_cell_angle_alpha 90
_cell_angle_beta  90
_cell_angle_gamma 90
_cell_volume      45890.1

_symmetry_cell_setting          triclinic
_symmetry_space_group_name_Hall 'P 1'
_symmetry_space_group_name_H-M  'P 1'
_symmetry_Int_Tables_number     1

_symmetry_equiv_pos_as_xyz 'x,y,z'

loop_
_atom_site_label
_atom_site_type_symbol
_atom_site_fract_x
_atom_site_fract_y
_atom_site_fract_z
_atom_site_charge
C1       C      0.426920000000     0.839960000000     0.506870000000     0.405834   
C2       C      0.590400000000     0.839560000000     0.009690000000     0.40541    
C3       C      0.510100000000     0.839780000000     0.447160000000     0.403279   
C4       C      0.507140000000     0.839860000000     0.069770000000     0.402719   
C5       C      0.426460000000     0.839460000000     0.258940000000     0.405676   
C6       C      0.590010000000     0.840360000000     0.258070000000     0.405567   
C7       C      0.507510000000     0.839950000000     0.197180000000     0.402736   
C8       C      0.509010000000     0.839890000000     0.319810000000     0.403297   
C9       C      0.840620000000     0.589190000000     0.009980000000     0.405445   
C10      C      0.841070000000     0.425610000000     0.508720000000     0.405586   
C11      C      0.840850000000     0.506440000000     0.070530000000     0.403356   
C12      C      0.840940000000     0.508450000000     0.447880000000     0.402802   
C13      C      0.841140000000     0.589670000000     0.257230000000     0.405357   
C14      C      0.841270000000     0.426080000000     0.260550000000     0.405447   
C15      C      0.841110000000     0.509620000000     0.320470000000     0.402861   
C16      C      0.841040000000     0.506060000000     0.197840000000     0.403479   
C17      C      0.589800000000     0.174400000000     0.499780000000     0.406052   
C18      C      0.425990000000     0.175090000000     0.501270000000     0.405835   
C19      C      0.508820000000     0.174910000000     0.061660000000     0.403837   
C20      C      0.506910000000     0.174660000000     0.438990000000     0.403964   
C21      C      0.425590000000     0.174480000000     0.249550000000     0.405918   
C22      C      0.589380000000     0.175100000000     0.251330000000     0.406245   
C23      C      0.508580000000     0.174700000000     0.188980000000     0.404096   
C24      C      0.506460000000     0.174930000000     0.311650000000     0.403855   
C25      C      0.176110000000     0.589580000000     0.506810000000     0.406169   
C26      C      0.174480000000     0.425900000000     0.510250000000     0.406081   
C27      C      0.173700000000     0.509450000000     0.070060000000     0.403346   
C28      C      0.176900000000     0.505950000000     0.447380000000     0.403745   
C29      C      0.175820000000     0.589260000000     0.258950000000     0.405654   
C30      C      0.174680000000     0.425680000000     0.258620000000     0.405507   
C31      C      0.176750000000     0.506900000000     0.320050000000     0.403568   
C32      C      0.173770000000     0.508050000000     0.197450000000     0.403153   
C33      C      0.841150000000     0.758280000000     0.008990000000     0.401989   
C34      C      0.841280000000     0.922170000000     0.005730000000     0.399998   
C35      C      0.759520000000     0.839960000000     0.008810000000     0.401742   
C36      C      0.923460000000     0.840040000000     0.006070000000     0.40009    
C37      C      0.841570000000     0.758840000000     0.253450000000     0.40505    
C38      C      0.840440000000     0.922680000000     0.254040000000     0.403611   
C39      C      0.759210000000     0.840380000000     0.255500000000     0.40544    
C40      C      0.922990000000     0.841040000000     0.251950000000     0.403707   
C41      C      0.840950000000     0.256360000000     0.507620000000     0.40538    
C42      C      0.840650000000     0.092580000000     0.505200000000     0.403677   
C43      C      0.758950000000     0.174630000000     0.503600000000     0.405077   
C44      C      0.922650000000     0.174330000000     0.508930000000     0.403496   
C45      C      0.840830000000     0.256840000000     0.259310000000     0.405021   
C46      C      0.839820000000     0.093070000000     0.255970000000     0.40357    
C47      C      0.758480000000     0.175570000000     0.255630000000     0.405121   
C48      C      0.922270000000     0.174500000000     0.259010000000     0.403422   
C49      C      0.175730000000     0.092960000000     0.506820000000     0.403485   
C50      C      0.174340000000     0.256720000000     0.509840000000     0.405291   
C51      C      0.093120000000     0.174260000000     0.510000000000     0.403527   
C52      C      0.256880000000     0.175620000000     0.506060000000     0.405176   
C53      C      0.174390000000     0.256450000000     0.256960000000     0.404951   
C54      C      0.174900000000     0.092710000000     0.253160000000     0.403722   
C55      C      0.256430000000     0.174750000000     0.252450000000     0.40521    
C56      C      0.092730000000     0.174390000000     0.257590000000     0.40339    
C57      C      0.176450000000     0.758580000000     0.503860000000     0.406049   
C58      C      0.175930000000     0.922540000000     0.504880000000     0.403802   
C59      C      0.257860000000     0.840330000000     0.504090000000     0.406047   
C60      C      0.093900000000     0.840240000000     0.504630000000     0.404073   
C61      C      0.175520000000     0.758360000000     0.256090000000     0.405947   
C62      C      0.175620000000     0.922280000000     0.252650000000     0.404215   
C63      C      0.257350000000     0.839940000000     0.256330000000     0.406027   
C64      C      0.093440000000     0.840340000000     0.252270000000     0.404123   
C65      C      0.173570000000     0.028760000000     0.279550000000     0.0302531  
C66      C      0.176860000000     0.029210000000     0.225370000000     0.0302932  
C67      C      0.177040000000     0.986080000000     0.225230000000     0.0303803  
C68      C      0.173810000000     0.985930000000     0.279420000000     0.030188   
C69      C      0.176910000000     0.029820000000     0.478850000000     0.0302048  
C70      C      0.175040000000     0.028670000000     0.033070000000     0.0297948  
C71      C      0.175180000000     0.985730000000     0.032620000000     0.0298061  
C72      C      0.176810000000     0.986810000000     0.478400000000     0.0302168  
C73      C      0.986340000000     0.176590000000     0.286140000000     0.0302848  
C74      C      0.985700000000     0.171950000000     0.232020000000     0.0303172  
C75      C      0.028520000000     0.171930000000     0.231640000000     0.0301657  
C76      C      0.029500000000     0.176570000000     0.285770000000     0.0302114  
C77      C      0.029160000000     0.176670000000     0.037290000000     0.0295859  
C78      C      0.029580000000     0.171440000000     0.483190000000     0.0302122  
C79      C      0.986770000000     0.171480000000     0.482910000000     0.0302197  
C80      C      0.985990000000     0.176730000000     0.037000000000     0.0297841  
C81      C      0.986730000000     0.838750000000     0.224460000000     0.0303389  
C82      C      0.986720000000     0.843060000000     0.278600000000     0.0302356  
C83      C      0.029550000000     0.842770000000     0.278690000000     0.0302566  
C84      C      0.029870000000     0.838620000000     0.224540000000     0.0303262  
C85      C      0.839900000000     0.985860000000     0.281740000000     0.0304112  
C86      C      0.840020000000     0.986930000000     0.227500000000     0.0301532  
C87      C      0.839620000000     0.029950000000     0.227960000000     0.0303328  
C88      C      0.839900000000     0.028790000000     0.282200000000     0.0302626  
C89      C      0.030570000000     0.840200000000     0.032180000000     0.0298997  
C90      C      0.029770000000     0.839950000000     0.477940000000     0.0302557  
C91      C      0.986750000000     0.839800000000     0.478260000000     0.0302211  
C92      C      0.987620000000     0.840230000000     0.032510000000     0.0297167  
C93      C      0.839520000000     0.985670000000     0.478020000000     0.0304192  
C94      C      0.842550000000     0.986110000000     0.032210000000     0.0297427  
C95      C      0.842380000000     0.028960000000     0.032080000000     0.0296517  
C96      C      0.839300000000     0.028770000000     0.477880000000     0.0302756  
C97      C      0.150370000000     0.652910000000     0.277480000000     0.0322011  
C98      C      0.201760000000     0.651830000000     0.239010000000     0.0319445  
C99      C      0.200090000000     0.694690000000     0.237160000000     0.0322422  
C100     C      0.151850000000     0.695880000000     0.277850000000     0.0322605  
C101     C      0.146860000000     0.362880000000     0.240520000000     0.031935   
C102     C      0.201510000000     0.362150000000     0.276390000000     0.031821   
C103     C      0.199930000000     0.319180000000     0.277190000000     0.0315321  
C104     C      0.148130000000     0.319990000000     0.239030000000     0.0318213  
C105     C      0.203280000000     0.653140000000     0.523730000000     0.0321712  
C106     C      0.150490000000     0.652080000000     0.986320000000     0.0351344  
C107     C      0.152340000000     0.694990000000     0.984230000000     0.0347086  
C108     C      0.201970000000     0.696070000000     0.523990000000     0.0324584  
C109     C      0.201740000000     0.362660000000     0.528220000000     0.0321709  
C110     C      0.145980000000     0.362870000000     0.993320000000     0.0349037  
C111     C      0.147300000000     0.319970000000     0.992070000000     0.03436    
C112     C      0.200210000000     0.319690000000     0.529370000000     0.0315488  
C113     C      0.141100000000     0.504070000000     0.399740000000     0.0299024  
C114     C      0.213620000000     0.507300000000     0.399800000000     0.030206   
C115     C      0.213520000000     0.507820000000     0.367610000000     0.0301238  
C116     C      0.141010000000     0.504320000000     0.367700000000     0.0299968  
C117     C      0.209490000000     0.507380000000     0.117720000000     0.0297118  
C118     C      0.137010000000     0.511370000000     0.117680000000     0.0300862  
C119     C      0.137080000000     0.511040000000     0.149880000000     0.030018   
C120     C      0.209540000000     0.506750000000     0.149760000000     0.0297973  
C121     C      0.362940000000     0.146270000000     0.267460000000     0.0321022  
C122     C      0.361970000000     0.202100000000     0.232620000000     0.0320696  
C123     C      0.318950000000     0.200700000000     0.232130000000     0.0317327  
C124     C      0.320090000000     0.147730000000     0.269370000000     0.0319663  
C125     C      0.653190000000     0.203080000000     0.235320000000     0.0320532  
C126     C      0.651760000000     0.147530000000     0.270400000000     0.0321227  
C127     C      0.694600000000     0.149130000000     0.272730000000     0.0318929  
C128     C      0.696180000000     0.201790000000     0.235250000000     0.0316859  
C129     C      0.362090000000     0.203100000000     0.485430000000     0.0320735  
C130     C      0.363680000000     0.147520000000     0.020470000000     0.0315485  
C131     C      0.320860000000     0.149140000000     0.022940000000     0.0312554  
C132     C      0.319100000000     0.201840000000     0.485490000000     0.0315101  
C133     C      0.652270000000     0.146360000000     0.018230000000     0.0319011  
C134     C      0.653610000000     0.201890000000     0.483130000000     0.0321035  
C135     C      0.696620000000     0.200490000000     0.482910000000     0.0316739  
C136     C      0.695110000000     0.147870000000     0.020420000000     0.0311647  
C137     C      0.506320000000     0.138420000000     0.391340000000     0.0301327  
C138     C      0.506380000000     0.211000000000     0.391410000000     0.0300096  
C139     C      0.506230000000     0.211170000000     0.359290000000     0.0301347  
C140     C      0.506190000000     0.138590000000     0.359230000000     0.0299743  
C141     C      0.509140000000     0.138590000000     0.109240000000     0.0299376  
C142     C      0.509140000000     0.211180000000     0.109290000000     0.0299442  
C143     C      0.509070000000     0.211020000000     0.141400000000     0.0299756  
C144     C      0.509090000000     0.138430000000     0.141350000000     0.0300524  
C145     C      0.868570000000     0.363080000000     0.242500000000     0.0319038  
C146     C      0.814380000000     0.362750000000     0.278770000000     0.0318561  
C147     C      0.815790000000     0.319750000000     0.279640000000     0.0315068  
C148     C      0.867090000000     0.320200000000     0.241100000000     0.0318905  
C149     C      0.814460000000     0.652120000000     0.237180000000     0.0318229  
C150     C      0.868830000000     0.653440000000     0.273280000000     0.0319307  
C151     C      0.867770000000     0.696360000000     0.273220000000     0.0319625  
C152     C      0.816270000000     0.695030000000     0.234850000000     0.0315665  
C153     C      0.814050000000     0.362260000000     0.526620000000     0.0318637  
C154     C      0.868520000000     0.362630000000     0.990590000000     0.0347092  
C155     C      0.867130000000     0.319730000000     0.989250000000     0.0341938  
C156     C      0.815500000000     0.319290000000     0.527540000000     0.0315185  
C157     C      0.814530000000     0.652160000000     0.490980000000     0.0319136  
C158     C      0.866270000000     0.652400000000     0.029210000000     0.0317605  
C159     C      0.864740000000     0.695380000000     0.030150000000     0.0316523  
C160     C      0.816180000000     0.695040000000     0.489660000000     0.0322669  
C161     C      0.877290000000     0.509640000000     0.400280000000     0.0299817  
C162     C      0.804710000000     0.509100000000     0.400210000000     0.029866   
C163     C      0.804760000000     0.509800000000     0.368080000000     0.029958   
C164     C      0.877340000000     0.509740000000     0.368140000000     0.0299457  
C165     C      0.804600000000     0.505900000000     0.118150000000     0.0301217  
C166     C      0.877190000000     0.505680000000     0.118100000000     0.0301114  
C167     C      0.877250000000     0.505810000000     0.150210000000     0.0300947  
C168     C      0.804650000000     0.505440000000     0.150270000000     0.029979   
C169     C      0.362890000000     0.864930000000     0.277650000000     0.0321391  
C170     C      0.363810000000     0.813490000000     0.239210000000     0.0319439  
C171     C      0.320940000000     0.815180000000     0.237440000000     0.0322695  
C172     C      0.319900000000     0.863460000000     0.278110000000     0.0322848  
C173     C      0.652650000000     0.867250000000     0.238910000000     0.031908   
C174     C      0.653660000000     0.814060000000     0.275980000000     0.0319688  
C175     C      0.696640000000     0.815560000000     0.276470000000     0.0316152  
C176     C      0.695530000000     0.865790000000     0.237160000000     0.0319618  
C177     C      0.364490000000     0.865340000000     0.486030000000     0.0320636  
C178     C      0.363220000000     0.814140000000     0.024650000000     0.0315727  
C179     C      0.320310000000     0.815630000000     0.024890000000     0.0317458  
C180     C      0.321560000000     0.863640000000     0.484050000000     0.0323801  
C181     C      0.653620000000     0.865100000000     0.029040000000     0.0316306  
C182     C      0.653390000000     0.813560000000     0.490670000000     0.0320057  
C183     C      0.696280000000     0.815170000000     0.489380000000     0.0322697  
C184     C      0.696600000000     0.863550000000     0.029980000000     0.031667   
C185     C      0.513780000000     0.875910000000     0.399550000000     0.0299512  
C186     C      0.506570000000     0.803680000000     0.399540000000     0.0298861  
C187     C      0.506210000000     0.803720000000     0.367430000000     0.03006    
C188     C      0.513390000000     0.875940000000     0.367420000000     0.0299983  
C189     C      0.510520000000     0.803790000000     0.117420000000     0.0298002  
C190     C      0.503100000000     0.875980000000     0.117400000000     0.0298802  
C191     C      0.503250000000     0.876010000000     0.149540000000     0.0298277  
C192     C      0.510700000000     0.803820000000     0.149550000000     0.0298594  
C193     C      0.426920000000     0.839960000000     0.006870000000     0.405397   
C194     C      0.590400000000     0.839560000000     0.509690000000     0.405665   
C195     C      0.510100000000     0.839780000000     0.947160000000     0.402924   
C196     C      0.507140000000     0.839860000000     0.569770000000     0.402894   
C197     C      0.426460000000     0.839460000000     0.758940000000     0.40568    
C198     C      0.590010000000     0.840360000000     0.758070000000     0.405479   
C199     C      0.507510000000     0.839950000000     0.697180000000     0.402731   
C200     C      0.509010000000     0.839890000000     0.819810000000     0.403327   
C201     C      0.840620000000     0.589190000000     0.509980000000     0.405705   
C202     C      0.841070000000     0.425610000000     0.008730000000     0.405144   
C203     C      0.840850000000     0.506440000000     0.570530000000     0.403537   
C204     C      0.840940000000     0.508450000000     0.947880000000     0.402447   
C205     C      0.841140000000     0.589670000000     0.757230000000     0.405361   
C206     C      0.841270000000     0.426080000000     0.760550000000     0.405449   
C207     C      0.841110000000     0.509610000000     0.820470000000     0.402889   
C208     C      0.841030000000     0.506060000000     0.697840000000     0.40336    
C209     C      0.589800000000     0.174400000000     0.999780000000     0.412956   
C210     C      0.425990000000     0.175090000000     0.001270000000     0.401759   
C211     C      0.508820000000     0.174910000000     0.561660000000     0.403748   
C212     C      0.506910000000     0.174660000000     0.938990000000     0.403907   
C213     C      0.425600000000     0.174480000000     0.749550000000     0.405985   
C214     C      0.589380000000     0.175100000000     0.751330000000     0.406247   
C215     C      0.508580000000     0.174700000000     0.688980000000     0.404102   
C216     C      0.506460000000     0.174930000000     0.811650000000     0.403874   
C217     C      0.176110000000     0.589580000000     0.006810000000     0.405725   
C218     C      0.174480000000     0.425900000000     0.010250000000     0.405645   
C219     C      0.173700000000     0.509450000000     0.570060000000     0.403528   
C220     C      0.176900000000     0.505950000000     0.947380000000     0.403564   
C221     C      0.175820000000     0.589260000000     0.758950000000     0.405658   
C222     C      0.174680000000     0.425680000000     0.758620000000     0.40551    
C223     C      0.176750000000     0.506900000000     0.820050000000     0.403596   
C224     C      0.173770000000     0.508050000000     0.697450000000     0.403152   
C225     C      0.841150000000     0.758280000000     0.508980000000     0.406048   
C226     C      0.841280000000     0.922170000000     0.505730000000     0.404044   
C227     C      0.759520000000     0.839960000000     0.508810000000     0.405788   
C228     C      0.923460000000     0.840040000000     0.506070000000     0.404083   
C229     C      0.841570000000     0.758840000000     0.753450000000     0.405044   
C230     C      0.840440000000     0.922680000000     0.754040000000     0.403602   
C231     C      0.759210000000     0.840380000000     0.755500000000     0.405436   
C232     C      0.922990000000     0.841040000000     0.751950000000     0.403691   
C233     C      0.840950000000     0.256360000000     0.007620000000     0.40131    
C234     C      0.840650000000     0.092580000000     0.005200000000     0.399684   
C235     C      0.758950000000     0.174630000000     0.003600000000     0.401018   
C236     C      0.922650000000     0.174330000000     0.008930000000     0.399474   
C237     C      0.840830000000     0.256840000000     0.759310000000     0.405015   
C238     C      0.839820000000     0.093070000000     0.755970000000     0.403559   
C239     C      0.758480000000     0.175570000000     0.755630000000     0.405115   
C240     C      0.922270000000     0.174500000000     0.759010000000     0.403413   
C241     C      0.175730000000     0.092960000000     0.006820000000     0.399497   
C242     C      0.174340000000     0.256720000000     0.009840000000     0.401222   
C243     C      0.093120000000     0.174260000000     0.010000000000     0.399504   
C244     C      0.256880000000     0.175620000000     0.006060000000     0.401138   
C245     C      0.174390000000     0.256450000000     0.756960000000     0.404945   
C246     C      0.174900000000     0.092700000000     0.753160000000     0.403655   
C247     C      0.256430000000     0.174750000000     0.752450000000     0.405206   
C248     C      0.092730000000     0.174390000000     0.757590000000     0.403379   
C249     C      0.176450000000     0.758580000000     0.003860000000     0.402116   
C250     C      0.175930000000     0.922540000000     0.004880000000     0.399778   
C251     C      0.257860000000     0.840330000000     0.004090000000     0.402027   
C252     C      0.093900000000     0.840240000000     0.004620000000     0.400046   
C253     C      0.175520000000     0.758360000000     0.756090000000     0.405944   
C254     C      0.175620000000     0.922270000000     0.752650000000     0.404273   
C255     C      0.257350000000     0.839940000000     0.756330000000     0.406022   
C256     C      0.093440000000     0.840340000000     0.752270000000     0.404113   
C257     C      0.173570000000     0.028760000000     0.779550000000     0.0302692  
C258     C      0.176860000000     0.029210000000     0.725370000000     0.0303018  
C259     C      0.177040000000     0.986080000000     0.725230000000     0.0303601  
C260     C      0.173810000000     0.985930000000     0.779420000000     0.0301772  
C261     C      0.176910000000     0.029820000000     0.978850000000     0.0326406  
C262     C      0.175040000000     0.028670000000     0.533070000000     0.0303175  
C263     C      0.175180000000     0.985730000000     0.532620000000     0.030345   
C264     C      0.176810000000     0.986810000000     0.978400000000     0.032636   
C265     C      0.986340000000     0.176590000000     0.786140000000     0.0302855  
C266     C      0.985700000000     0.171950000000     0.732020000000     0.0303123  
C267     C      0.028520000000     0.171930000000     0.731640000000     0.0301609  
C268     C      0.029500000000     0.176570000000     0.785770000000     0.0302131  
C269     C      0.029160000000     0.176670000000     0.537290000000     0.0301435  
C270     C      0.029580000000     0.171440000000     0.983190000000     0.032624   
C271     C      0.986770000000     0.171480000000     0.982910000000     0.0326321  
C272     C      0.985990000000     0.176730000000     0.537000000000     0.0303414  
C273     C      0.986730000000     0.838750000000     0.724450000000     0.0302224  
C274     C      0.986720000000     0.843060000000     0.778600000000     0.0302309  
C275     C      0.029550000000     0.842770000000     0.778690000000     0.030267   
C276     C      0.029870000000     0.838620000000     0.724540000000     0.0303792  
C277     C      0.839900000000     0.985860000000     0.781740000000     0.0304192  
C278     C      0.840020000000     0.986930000000     0.727500000000     0.0301618  
C279     C      0.839620000000     0.029950000000     0.727960000000     0.0302958  
C280     C      0.839900000000     0.028790000000     0.782200000000     0.0302655  
C281     C      0.030570000000     0.840200000000     0.532180000000     0.0303676  
C282     C      0.029770000000     0.839940000000     0.977940000000     0.0326611  
C283     C      0.986750000000     0.839800000000     0.978260000000     0.0326547  
C284     C      0.987620000000     0.840230000000     0.532500000000     0.0303617  
C285     C      0.839520000000     0.985670000000     0.978020000000     0.0328688  
C286     C      0.842550000000     0.986110000000     0.532210000000     0.0302113  
C287     C      0.842380000000     0.028960000000     0.532070000000     0.0302458  
C288     C      0.839300000000     0.028770000000     0.977880000000     0.032717   
C289     C      0.150370000000     0.652910000000     0.777480000000     0.0322074  
C290     C      0.201760000000     0.651830000000     0.739010000000     0.0319596  
C291     C      0.200090000000     0.694690000000     0.737160000000     0.0322546  
C292     C      0.151850000000     0.695880000000     0.777850000000     0.0322891  
C293     C      0.146860000000     0.362880000000     0.740520000000     0.0319446  
C294     C      0.201510000000     0.362150000000     0.776390000000     0.0318406  
C295     C      0.199930000000     0.319180000000     0.777190000000     0.0315519  
C296     C      0.148130000000     0.319990000000     0.739030000000     0.0318289  
C297     C      0.203280000000     0.653140000000     0.023730000000     0.0317399  
C298     C      0.150490000000     0.652080000000     0.486320000000     0.0323188  
C299     C      0.152340000000     0.694990000000     0.484230000000     0.0323337  
C300     C      0.201970000000     0.696070000000     0.023990000000     0.0318482  
C301     C      0.201740000000     0.362660000000     0.028220000000     0.0317247  
C302     C      0.145980000000     0.362870000000     0.493310000000     0.0320151  
C303     C      0.147300000000     0.319970000000     0.492070000000     0.0320328  
C304     C      0.200210000000     0.319690000000     0.029370000000     0.0308811  
C305     C      0.141100000000     0.504070000000     0.899740000000     0.0300305  
C306     C      0.213620000000     0.507300000000     0.899800000000     0.0303681  
C307     C      0.213520000000     0.507820000000     0.867610000000     0.0302341  
C308     C      0.141010000000     0.504320000000     0.867700000000     0.0300918  
C309     C      0.209490000000     0.507380000000     0.617720000000     0.0298038  
C310     C      0.137010000000     0.511370000000     0.617680000000     0.0300618  
C311     C      0.137080000000     0.511040000000     0.649880000000     0.0300606  
C312     C      0.209540000000     0.506750000000     0.649760000000     0.0297965  
C313     C      0.362940000000     0.146270000000     0.767460000000     0.0321042  
C314     C      0.361970000000     0.202100000000     0.732620000000     0.0320727  
C315     C      0.318950000000     0.200700000000     0.732130000000     0.0317487  
C316     C      0.320090000000     0.147730000000     0.769370000000     0.0319856  
C317     C      0.653190000000     0.203080000000     0.735320000000     0.0320677  
C318     C      0.651760000000     0.147530000000     0.770400000000     0.0321358  
C319     C      0.694600000000     0.149130000000     0.772730000000     0.0319087  
C320     C      0.696180000000     0.201790000000     0.735250000000     0.0316989  
C321     C      0.362090000000     0.203100000000     0.985430000000     0.0345134  
C322     C      0.363680000000     0.147520000000     0.520470000000     0.0321542  
C323     C      0.320860000000     0.149140000000     0.522940000000     0.0318947  
C324     C      0.319100000000     0.201840000000     0.985490000000     0.0340038  
C325     C      0.652270000000     0.146370000000     0.518230000000     0.0321138  
C326     C      0.653610000000     0.201890000000     0.983130000000     0.035022   
C327     C      0.696620000000     0.200490000000     0.982910000000     0.0338916  
C328     C      0.695110000000     0.147860000000     0.520410000000     0.0319664  
C329     C      0.506320000000     0.138420000000     0.891340000000     0.0302398  
C330     C      0.506380000000     0.211000000000     0.891410000000     0.0301143  
C331     C      0.506230000000     0.211170000000     0.859290000000     0.030196   
C332     C      0.506190000000     0.138590000000     0.859230000000     0.0300683  
C333     C      0.509140000000     0.138590000000     0.609240000000     0.0300025  
C334     C      0.509140000000     0.211180000000     0.609290000000     0.0300259  
C335     C      0.509070000000     0.211020000000     0.641400000000     0.0300496  
C336     C      0.509090000000     0.138430000000     0.641350000000     0.0300773  
C337     C      0.868570000000     0.363080000000     0.742500000000     0.0319136  
C338     C      0.814380000000     0.362750000000     0.778770000000     0.0318762  
C339     C      0.815790000000     0.319750000000     0.779640000000     0.0315273  
C340     C      0.867090000000     0.320200000000     0.741100000000     0.0318984  
C341     C      0.814460000000     0.652120000000     0.737180000000     0.0318364  
C342     C      0.868830000000     0.653440000000     0.773280000000     0.0319444  
C343     C      0.867770000000     0.696360000000     0.773220000000     0.0319771  
C344     C      0.816270000000     0.695030000000     0.734850000000     0.0315758  
C345     C      0.814050000000     0.362260000000     0.026620000000     0.0313951  
C346     C      0.868520000000     0.362640000000     0.490590000000     0.0319177  
C347     C      0.867130000000     0.319730000000     0.489250000000     0.0318389  
C348     C      0.815500000000     0.319290000000     0.027540000000     0.0308611  
C349     C      0.814530000000     0.652160000000     0.990980000000     0.0347181  
C350     C      0.866270000000     0.652400000000     0.529210000000     0.0321776  
C351     C      0.864740000000     0.695380000000     0.530150000000     0.0322988  
C352     C      0.816180000000     0.695040000000     0.989660000000     0.0346282  
C353     C      0.877290000000     0.509640000000     0.900280000000     0.0301105  
C354     C      0.804710000000     0.509100000000     0.900210000000     0.0300009  
C355     C      0.804760000000     0.509800000000     0.868080000000     0.0300613  
C356     C      0.877340000000     0.509740000000     0.868140000000     0.0300443  
C357     C      0.804600000000     0.505900000000     0.618150000000     0.0301693  
C358     C      0.877190000000     0.505680000000     0.618100000000     0.0301418  
C359     C      0.877250000000     0.505810000000     0.650210000000     0.0301309  
C360     C      0.804650000000     0.505440000000     0.650270000000     0.0300062  
C361     C      0.362890000000     0.864930000000     0.777650000000     0.0321586  
C362     C      0.363810000000     0.813490000000     0.739210000000     0.0319593  
C363     C      0.320940000000     0.815180000000     0.737440000000     0.032281   
C364     C      0.319900000000     0.863460000000     0.778110000000     0.0323084  
C365     C      0.652650000000     0.867250000000     0.738910000000     0.0319223  
C366     C      0.653660000000     0.814060000000     0.775980000000     0.0319959  
C367     C      0.696640000000     0.815560000000     0.776470000000     0.0316383  
C368     C      0.695530000000     0.865790000000     0.737160000000     0.0319707  
C369     C      0.364490000000     0.865340000000     0.986030000000     0.0348845  
C370     C      0.363220000000     0.814140000000     0.524650000000     0.0319773  
C371     C      0.320310000000     0.815630000000     0.524890000000     0.032353   
C372     C      0.321560000000     0.863640000000     0.984050000000     0.0347639  
C373     C      0.653620000000     0.865100000000     0.529040000000     0.0320355  
C374     C      0.653390000000     0.813560000000     0.990670000000     0.0348216  
C375     C      0.696280000000     0.815170000000     0.989380000000     0.0346287  
C376     C      0.696600000000     0.863550000000     0.529980000000     0.0322907  
C377     C      0.513780000000     0.875910000000     0.899550000000     0.0300895  
C378     C      0.506570000000     0.803680000000     0.899540000000     0.0300293  
C379     C      0.506210000000     0.803720000000     0.867430000000     0.0301742  
C380     C      0.513390000000     0.875940000000     0.867420000000     0.0301108  
C381     C      0.510520000000     0.803790000000     0.617420000000     0.029836   
C382     C      0.503100000000     0.875980000000     0.617400000000     0.0299142  
C383     C      0.503250000000     0.876010000000     0.649540000000     0.0298143  
C384     C      0.510700000000     0.803820000000     0.649550000000     0.0298814  
Cu1      Cu     0.508750000000     0.877720000000     0.508440000000     0.844641   
Cu2      Cu     0.508550000000     0.801930000000     0.008460000000     0.846216   
Cu3      Cu     0.507990000000     0.877820000000     0.258530000000     0.846144   
Cu4      Cu     0.508460000000     0.802020000000     0.258500000000     0.847632   
Cu5      Cu     0.802930000000     0.507300000000     0.009200000000     0.84499    
Cu6      Cu     0.878810000000     0.507540000000     0.509260000000     0.846881   
Cu7      Cu     0.803160000000     0.507830000000     0.259140000000     0.845593   
Cu8      Cu     0.879040000000     0.507920000000     0.259120000000     0.848894   
Cu9      Cu     0.508040000000     0.212800000000     0.499700000000     0.848498   
Cu10     Cu     0.507740000000     0.136770000000     0.500950000000     0.850321   
Cu11     Cu     0.507350000000     0.212840000000     0.249690000000     0.848774   
Cu12     Cu     0.507630000000     0.136800000000     0.250930000000     0.85038    
Cu13     Cu     0.137280000000     0.508110000000     0.507690000000     0.848907   
Cu14     Cu     0.213300000000     0.507400000000     0.509710000000     0.849555   
Cu15     Cu     0.137340000000     0.507770000000     0.259160000000     0.84691    
Cu16     Cu     0.213170000000     0.507200000000     0.258380000000     0.847622   
Cu17     Cu     0.842550000000     0.841340000000     0.035750000000     0.848161   
Cu18     Cu     0.840190000000     0.838860000000     0.478960000000     0.846739   
Cu19     Cu     0.842320000000     0.840100000000     0.281940000000     0.853848   
Cu20     Cu     0.839610000000     0.841200000000     0.225310000000     0.840428   
Cu21     Cu     0.842510000000     0.175590000000     0.478080000000     0.848103   
Cu22     Cu     0.838840000000     0.173590000000     0.034640000000     0.841923   
Cu23     Cu     0.841550000000     0.176410000000     0.229260000000     0.851225   
Cu24     Cu     0.838940000000     0.173750000000     0.285850000000     0.842569   
Cu25     Cu     0.176600000000     0.173730000000     0.036540000000     0.838306   
Cu26     Cu     0.173670000000     0.176220000000     0.479970000000     0.851351   
Cu27     Cu     0.176490000000     0.173300000000     0.283320000000     0.84648    
Cu28     Cu     0.172930000000     0.176090000000     0.226770000000     0.846978   
Cu29     Cu     0.175470000000     0.841110000000     0.475880000000     0.84442    
Cu30     Cu     0.176550000000     0.839750000000     0.032710000000     0.850147   
Cu31     Cu     0.177010000000     0.838870000000     0.225830000000     0.841762   
Cu32     Cu     0.174040000000     0.841510000000     0.282600000000     0.856807   
Cu33     Cu     0.508750000000     0.877720000000     0.008440000000     0.841862   
Cu34     Cu     0.508550000000     0.801930000000     0.508460000000     0.849139   
Cu35     Cu     0.507990000000     0.877820000000     0.758530000000     0.846133   
Cu36     Cu     0.508460000000     0.802020000000     0.758500000000     0.847703   
Cu37     Cu     0.802930000000     0.507300000000     0.509200000000     0.847926   
Cu38     Cu     0.878810000000     0.507540000000     0.009260000000     0.843994   
Cu39     Cu     0.803160000000     0.507830000000     0.759140000000     0.84568    
Cu40     Cu     0.879040000000     0.507920000000     0.759120000000     0.848858   
Cu41     Cu     0.508040000000     0.212800000000     0.999700000000     0.854999   
Cu42     Cu     0.507740000000     0.136770000000     0.000950000000     0.844263   
Cu43     Cu     0.507350000000     0.212840000000     0.749690000000     0.84885    
Cu44     Cu     0.507630000000     0.136800000000     0.750930000000     0.85037    
Cu45     Cu     0.137280000000     0.508110000000     0.007690000000     0.845927   
Cu46     Cu     0.213300000000     0.507400000000     0.009710000000     0.846735   
Cu47     Cu     0.137340000000     0.507770000000     0.759160000000     0.846898   
Cu48     Cu     0.213170000000     0.507200000000     0.758380000000     0.847698   
Cu49     Cu     0.842550000000     0.841340000000     0.535750000000     0.851747   
Cu50     Cu     0.840190000000     0.838860000000     0.978960000000     0.848893   
Cu51     Cu     0.842320000000     0.840100000000     0.781940000000     0.853894   
Cu52     Cu     0.839610000000     0.841200000000     0.725310000000     0.840395   
Cu53     Cu     0.842510000000     0.175590000000     0.978080000000     0.850191   
Cu54     Cu     0.838840000000     0.173590000000     0.534640000000     0.84554    
Cu55     Cu     0.841550000000     0.176410000000     0.729260000000     0.8512     
Cu56     Cu     0.838940000000     0.173750000000     0.785850000000     0.842611   
Cu57     Cu     0.176600000000     0.173730000000     0.536540000000     0.841911   
Cu58     Cu     0.173670000000     0.176220000000     0.979970000000     0.853435   
Cu59     Cu     0.176490000000     0.173300000000     0.783320000000     0.846527   
Cu60     Cu     0.172930000000     0.176090000000     0.726770000000     0.846949   
Cu61     Cu     0.175470000000     0.841110000000     0.975880000000     0.846545   
Cu62     Cu     0.176550000000     0.839750000000     0.532710000000     0.853771   
Cu63     Cu     0.177010000000     0.838870000000     0.725830000000     0.841728   
Cu64     Cu     0.174040000000     0.841510000000     0.782600000000     0.85686    
H1       H      0.172170000000     0.044030000000     0.301710000000     0.0388922  
H2       H      0.178110000000     0.045080000000     0.203450000000     0.0385654  
H3       H      0.178440000000     0.970470000000     0.203210000000     0.0385253  
H4       H      0.172550000000     0.970410000000     0.301480000000     0.0388837  
H5       H      0.177620000000     0.045890000000     0.457000000000     0.0384169  
H6       H      0.174310000000     0.043750000000     0.055320000000     0.0390493  
H7       H      0.174490000000     0.969730000000     0.054510000000     0.0388756  
H8       H      0.177520000000     0.971650000000     0.456190000000     0.0385569  
H9       H      0.970900000000     0.178490000000     0.308210000000     0.0383135  
H10      H      0.970010000000     0.170060000000     0.210050000000     0.0391032  
H11      H      0.043560000000     0.170030000000     0.209420000000     0.0390619  
H12      H      0.045580000000     0.178460000000     0.307570000000     0.0384276  
H13      H      0.044690000000     0.178800000000     0.059300000000     0.038346   
H14      H      0.045180000000     0.169290000000     0.461200000000     0.039151   
H15      H      0.971660000000     0.169360000000     0.460720000000     0.039081   
H16      H      0.969970000000     0.178880000000     0.058820000000     0.0383516  
H17      H      0.971050000000     0.837090000000     0.202480000000     0.0384892  
H18      H      0.971260000000     0.844860000000     0.300670000000     0.038899   
H19      H      0.044870000000     0.844420000000     0.300820000000     0.038835   
H20      H      0.045680000000     0.836830000000     0.202620000000     0.0385709  
H21      H      0.839990000000     0.969880000000     0.303640000000     0.0387892  
H22      H      0.840080000000     0.971750000000     0.205290000000     0.0385455  
H23      H      0.839510000000     0.046030000000     0.206100000000     0.0383386  
H24      H      0.839880000000     0.043860000000     0.304450000000     0.0389965  
H25      H      0.046450000000     0.840350000000     0.054120000000     0.0388443  
H26      H      0.045050000000     0.839830000000     0.455760000000     0.0385633  
H27      H      0.970790000000     0.839630000000     0.456360000000     0.0384352  
H28      H      0.972430000000     0.840350000000     0.054710000000     0.0390435  
H29      H      0.838350000000     0.969830000000     0.456080000000     0.038627   
H30      H      0.843860000000     0.970800000000     0.054360000000     0.038841   
H31      H      0.843560000000     0.044510000000     0.054130000000     0.0389516  
H32      H      0.837990000000     0.044360000000     0.455850000000     0.0385749  
H33      H      0.129950000000     0.637320000000     0.293430000000     0.0359756  
H34      H      0.222170000000     0.635390000000     0.223540000000     0.0358694  
H35      H      0.219770000000     0.710230000000     0.220670000000     0.0350849  
H36      H      0.132070000000     0.712370000000     0.293730000000     0.0358438  
H37      H      0.125180000000     0.379140000000     0.225930000000     0.0365533  
H38      H      0.223340000000     0.377860000000     0.291180000000     0.0364321  
H39      H      0.221080000000     0.302870000000     0.292160000000     0.0364618  
H40      H      0.126950000000     0.304330000000     0.223690000000     0.0366655  
H41      H      0.224140000000     0.637580000000     0.539380000000     0.0354823  
H42      H      0.129380000000     0.635590000000     0.971420000000     0.0359992  
H43      H      0.132100000000     0.710620000000     0.968190000000     0.0355342  
H44      H      0.222260000000     0.712540000000     0.539530000000     0.0346575  
H45      H      0.224040000000     0.378600000000     0.542480000000     0.0358769  
H46      H      0.123850000000     0.378940000000     0.978980000000     0.0364481  
H47      H      0.125720000000     0.304080000000     0.977170000000     0.0364866  
H48      H      0.221820000000     0.303560000000     0.544090000000     0.0361779  
H49      H      0.111560000000     0.502590000000     0.411310000000     0.0387851  
H50      H      0.243050000000     0.508560000000     0.411510000000     0.038713   
H51      H      0.242930000000     0.509340000000     0.355870000000     0.038913   
H52      H      0.111450000000     0.503070000000     0.356160000000     0.0386454  
H53      H      0.239020000000     0.505850000000     0.106160000000     0.0387032  
H54      H      0.107600000000     0.513170000000     0.105960000000     0.0384645  
H55      H      0.107680000000     0.512570000000     0.161630000000     0.0387373  
H56      H      0.239070000000     0.504900000000     0.161300000000     0.0385307  
H57      H      0.379320000000     0.124060000000     0.281520000000     0.0362417  
H58      H      0.377610000000     0.224360000000     0.218150000000     0.0359047  
H59      H      0.302490000000     0.222360000000     0.217660000000     0.0361199  
H60      H      0.304540000000     0.126160000000     0.284470000000     0.0363699  
H61      H      0.637770000000     0.225150000000     0.220560000000     0.0358901  
H62      H      0.635180000000     0.125370000000     0.284360000000     0.0362956  
H63      H      0.709970000000     0.127680000000     0.288030000000     0.0364894  
H64      H      0.712820000000     0.223330000000     0.220790000000     0.0361864  
H65      H      0.377450000000     0.225180000000     0.470640000000     0.0359309  
H66      H      0.380330000000     0.125340000000     0.034380000000     0.036254   
H67      H      0.305560000000     0.127680000000     0.038270000000     0.0364797  
H68      H      0.302390000000     0.223390000000     0.471100000000     0.0362556  
H69      H      0.635730000000     0.124280000000     0.032300000000     0.0358116  
H70      H      0.638130000000     0.224020000000     0.468460000000     0.0359119  
H71      H      0.713240000000     0.222020000000     0.468430000000     0.0361849  
H72      H      0.710500000000     0.126430000000     0.035710000000     0.0362542  
H73      H      0.506360000000     0.108890000000     0.402960000000     0.0385215  
H74      H      0.506460000000     0.240500000000     0.403070000000     0.038979   
H75      H      0.506220000000     0.240700000000     0.347680000000     0.0385562  
H76      H      0.506130000000     0.109090000000     0.347560000000     0.0388351  
H77      H      0.509150000000     0.109090000000     0.097580000000     0.0387451  
H78      H      0.509140000000     0.240700000000     0.097660000000     0.0382342  
H79      H      0.509030000000     0.240520000000     0.153060000000     0.03883    
H80      H      0.509060000000     0.108910000000     0.152980000000     0.0385118  
H81      H      0.890120000000     0.379170000000     0.227710000000     0.0365802  
H82      H      0.792800000000     0.378630000000     0.293660000000     0.0362123  
H83      H      0.794780000000     0.303570000000     0.294800000000     0.0363872  
H84      H      0.888000000000     0.304400000000     0.225630000000     0.0366025  
H85      H      0.792710000000     0.635570000000     0.222860000000     0.0363733  
H86      H      0.890350000000     0.638060000000     0.288510000000     0.0364721  
H87      H      0.888880000000     0.712850000000     0.288130000000     0.0365167  
H88      H      0.795300000000     0.710510000000     0.219260000000     0.0363891  
H89      H      0.792350000000     0.378100000000     0.541430000000     0.0364004  
H90      H      0.890180000000     0.378760000000     0.975910000000     0.036733   
H91      H      0.888210000000     0.303920000000     0.973920000000     0.0367447  
H92      H      0.794400000000     0.303130000000     0.542640000000     0.036477   
H93      H      0.793990000000     0.636070000000     0.475410000000     0.0358757  
H94      H      0.886820000000     0.636450000000     0.044850000000     0.0360658  
H95      H      0.884660000000     0.711540000000     0.046120000000     0.0359176  
H96      H      0.796380000000     0.710940000000     0.473440000000     0.0350843  
H97      H      0.906790000000     0.509610000000     0.411950000000     0.0384619  
H98      H      0.775180000000     0.508840000000     0.411840000000     0.0385606  
H99      H      0.775260000000     0.509830000000     0.356410000000     0.0385782  
H100     H      0.906870000000     0.509920000000     0.356510000000     0.0384949  
H101     H      0.775070000000     0.505960000000     0.106520000000     0.0385253  
H102     H      0.906690000000     0.505760000000     0.106430000000     0.0387028  
H103     H      0.906780000000     0.505830000000     0.161830000000     0.0386777  
H104     H      0.775160000000     0.505360000000     0.161950000000     0.0386575  
H105     H      0.378550000000     0.885370000000     0.293530000000     0.035979   
H106     H      0.380180000000     0.793050000000     0.223720000000     0.0359078  
H107     H      0.305340000000     0.795500000000     0.220990000000     0.0350532  
H108     H      0.303460000000     0.883270000000     0.294000000000     0.0357474  
H109     H      0.636260000000     0.888380000000     0.223960000000     0.0364505  
H110     H      0.638070000000     0.792870000000     0.291350000000     0.0362293  
H111     H      0.713090000000     0.795020000000     0.291830000000     0.0362728  
H112     H      0.711070000000     0.886330000000     0.221270000000     0.0364678  
H113     H      0.381060000000     0.885700000000     0.470610000000     0.0360608  
H114     H      0.378690000000     0.793840000000     0.040750000000     0.0357466  
H115     H      0.303800000000     0.796010000000     0.040880000000     0.034924   
H116     H      0.306010000000     0.883290000000     0.467550000000     0.0355879  
H117     H      0.637660000000     0.885580000000     0.044730000000     0.0358557  
H118     H      0.637310000000     0.793100000000     0.475020000000     0.036059   
H119     H      0.712160000000     0.795430000000     0.473120000000     0.0352013  
H120     H      0.712770000000     0.883390000000     0.046010000000     0.035602   
H121     H      0.516810000000     0.905260000000     0.411190000000     0.0387938  
H122     H      0.503750000000     0.774310000000     0.411180000000     0.0389622  
H123     H      0.503160000000     0.774360000000     0.355790000000     0.0389244  
H124     H      0.516180000000     0.905320000000     0.355780000000     0.0387635  
H125     H      0.513510000000     0.774420000000     0.105790000000     0.0386734  
H126     H      0.500050000000     0.905320000000     0.105740000000     0.0386633  
H127     H      0.500290000000     0.905370000000     0.161180000000     0.0387523  
H128     H      0.513780000000     0.774460000000     0.161190000000     0.0387031  
H129     H      0.172170000000     0.044030000000     0.801710000000     0.0389256  
H130     H      0.178110000000     0.045080000000     0.703450000000     0.0385644  
H131     H      0.178440000000     0.970470000000     0.703210000000     0.0385379  
H132     H      0.172550000000     0.970410000000     0.801480000000     0.0389291  
H133     H      0.177620000000     0.045890000000     0.957000000000     0.0382791  
H134     H      0.174310000000     0.043750000000     0.555320000000     0.0390255  
H135     H      0.174490000000     0.969730000000     0.554510000000     0.0388563  
H136     H      0.177520000000     0.971650000000     0.956190000000     0.0384018  
H137     H      0.970910000000     0.178490000000     0.808210000000     0.0383435  
H138     H      0.970010000000     0.170060000000     0.710050000000     0.0391127  
H139     H      0.043560000000     0.170030000000     0.709420000000     0.0390713  
H140     H      0.045580000000     0.178460000000     0.807570000000     0.0384618  
H141     H      0.044690000000     0.178800000000     0.559300000000     0.0383399  
H142     H      0.045180000000     0.169290000000     0.961200000000     0.0389764  
H143     H      0.971660000000     0.169360000000     0.960720000000     0.038908   
H144     H      0.969970000000     0.178880000000     0.558820000000     0.0383453  
H145     H      0.971050000000     0.837090000000     0.702480000000     0.0385265  
H146     H      0.971260000000     0.844860000000     0.800670000000     0.0389389  
H147     H      0.044870000000     0.844420000000     0.800820000000     0.0388703  
H148     H      0.045680000000     0.836830000000     0.702620000000     0.0385633  
H149     H      0.839990000000     0.969880000000     0.803640000000     0.0388355  
H150     H      0.840080000000     0.971750000000     0.705290000000     0.0385452  
H151     H      0.839510000000     0.046030000000     0.706110000000     0.0383538  
H152     H      0.839880000000     0.043860000000     0.804450000000     0.0390435  
H153     H      0.046450000000     0.840350000000     0.554120000000     0.0388437  
H154     H      0.045050000000     0.839830000000     0.955760000000     0.0384048  
H155     H      0.970790000000     0.839630000000     0.956360000000     0.0382921  
H156     H      0.972430000000     0.840350000000     0.554710000000     0.0389873  
H157     H      0.838350000000     0.969830000000     0.956080000000     0.0384943  
H158     H      0.843860000000     0.970800000000     0.554360000000     0.0388225  
H159     H      0.843560000000     0.044510000000     0.554120000000     0.0389036  
H160     H      0.837990000000     0.044360000000     0.955850000000     0.0384507  
H161     H      0.129960000000     0.637320000000     0.793430000000     0.0360309  
H162     H      0.222170000000     0.635390000000     0.723540000000     0.0358955  
H163     H      0.219770000000     0.710230000000     0.720670000000     0.035101   
H164     H      0.132070000000     0.712370000000     0.793730000000     0.0358865  
H165     H      0.125180000000     0.379140000000     0.725930000000     0.0365687  
H166     H      0.223340000000     0.377860000000     0.791180000000     0.0364977  
H167     H      0.221080000000     0.302870000000     0.792160000000     0.0365144  
H168     H      0.126950000000     0.304330000000     0.723690000000     0.0366799  
H169     H      0.224140000000     0.637580000000     0.039370000000     0.035363   
H170     H      0.129380000000     0.635590000000     0.471420000000     0.0357361  
H171     H      0.132100000000     0.710620000000     0.468190000000     0.0354269  
H172     H      0.222260000000     0.712540000000     0.039530000000     0.03462    
H173     H      0.224040000000     0.378600000000     0.042480000000     0.0356963  
H174     H      0.123850000000     0.378940000000     0.478980000000     0.0361929  
H175     H      0.125720000000     0.304080000000     0.477170000000     0.0363673  
H176     H      0.221820000000     0.303560000000     0.044090000000     0.0360418  
H177     H      0.111560000000     0.502590000000     0.911310000000     0.0390989  
H178     H      0.243050000000     0.508560000000     0.911510000000     0.0391012  
H179     H      0.242930000000     0.509340000000     0.855870000000     0.0390581  
H180     H      0.111450000000     0.503070000000     0.856160000000     0.038735   
H181     H      0.239020000000     0.505850000000     0.606160000000     0.0388068  
H182     H      0.107600000000     0.513170000000     0.605970000000     0.0385754  
H183     H      0.107680000000     0.512570000000     0.661630000000     0.0387581  
H184     H      0.239070000000     0.504900000000     0.661300000000     0.038596   
H185     H      0.379320000000     0.124060000000     0.781520000000     0.03629    
H186     H      0.377610000000     0.224360000000     0.718150000000     0.0359558  
H187     H      0.302490000000     0.222360000000     0.717660000000     0.0361496  
H188     H      0.304540000000     0.126160000000     0.784470000000     0.0364106  
H189     H      0.637770000000     0.225150000000     0.720560000000     0.0359379  
H190     H      0.635180000000     0.125370000000     0.784360000000     0.0363415  
H191     H      0.709970000000     0.127680000000     0.788030000000     0.0365338  
H192     H      0.712820000000     0.223330000000     0.720790000000     0.036218   
H193     H      0.377450000000     0.225180000000     0.970640000000     0.035953   
H194     H      0.380330000000     0.125340000000     0.534380000000     0.0363386  
H195     H      0.305560000000     0.127680000000     0.538270000000     0.0365691  
H196     H      0.302390000000     0.223390000000     0.971100000000     0.0363504  
H197     H      0.635730000000     0.124280000000     0.532300000000     0.0361946  
H198     H      0.638130000000     0.224020000000     0.968460000000     0.03559    
H199     H      0.713240000000     0.222020000000     0.968430000000     0.0363272  
H200     H      0.710500000000     0.126430000000     0.535710000000     0.0363048  
H201     H      0.506360000000     0.108890000000     0.902960000000     0.0388852  
H202     H      0.506460000000     0.240500000000     0.903070000000     0.0391489  
H203     H      0.506220000000     0.240700000000     0.847680000000     0.0386472  
H204     H      0.506130000000     0.109090000000     0.847560000000     0.0389355  
H205     H      0.509150000000     0.109090000000     0.597580000000     0.0388123  
H206     H      0.509150000000     0.240700000000     0.597660000000     0.0385671  
H207     H      0.509030000000     0.240520000000     0.653060000000     0.0389382  
H208     H      0.509060000000     0.108910000000     0.652980000000     0.0385309  
H209     H      0.890120000000     0.379170000000     0.727710000000     0.0365949  
H210     H      0.792800000000     0.378630000000     0.793660000000     0.036278   
H211     H      0.794780000000     0.303570000000     0.794800000000     0.0364407  
H212     H      0.888000000000     0.304400000000     0.725630000000     0.0366164  
H213     H      0.792710000000     0.635570000000     0.722860000000     0.036409   
H214     H      0.890350000000     0.638060000000     0.788510000000     0.0365184  
H215     H      0.888880000000     0.712850000000     0.788130000000     0.0365543  
H216     H      0.795300000000     0.710510000000     0.719260000000     0.0364167  
H217     H      0.792350000000     0.378100000000     0.041430000000     0.0362163  
H218     H      0.890180000000     0.378760000000     0.475910000000     0.0364584  
H219     H      0.888210000000     0.303920000000     0.473920000000     0.0366583  
H220     H      0.794400000000     0.303130000000     0.042640000000     0.0363373  
H221     H      0.793990000000     0.636070000000     0.975410000000     0.0361206  
H222     H      0.886820000000     0.636450000000     0.544850000000     0.0361928  
H223     H      0.884660000000     0.711540000000     0.546120000000     0.0359698  
H224     H      0.796380000000     0.710940000000     0.973440000000     0.0351352  
H225     H      0.906790000000     0.509610000000     0.911950000000     0.0387989  
H226     H      0.775180000000     0.508840000000     0.911840000000     0.0389172  
H227     H      0.775260000000     0.509830000000     0.856410000000     0.0387056  
H228     H      0.906870000000     0.509920000000     0.856510000000     0.0385886  
H229     H      0.775070000000     0.505960000000     0.606520000000     0.0386712  
H230     H      0.906690000000     0.505760000000     0.606430000000     0.0388002  
H231     H      0.906780000000     0.505830000000     0.661830000000     0.038697   
H232     H      0.775160000000     0.505360000000     0.661950000000     0.0387232  
H233     H      0.378550000000     0.885370000000     0.793530000000     0.0360354  
H234     H      0.380180000000     0.793050000000     0.723720000000     0.0359334  
H235     H      0.305340000000     0.795500000000     0.720990000000     0.0350692  
H236     H      0.303460000000     0.883270000000     0.794000000000     0.0357944  
H237     H      0.636260000000     0.888380000000     0.723960000000     0.0364538  
H238     H      0.638070000000     0.792870000000     0.791350000000     0.0362907  
H239     H      0.713090000000     0.795020000000     0.791830000000     0.0363242  
H240     H      0.711070000000     0.886330000000     0.721270000000     0.0364734  
H241     H      0.381060000000     0.885700000000     0.970610000000     0.0363343  
H242     H      0.378690000000     0.793840000000     0.540750000000     0.0358665  
H243     H      0.303800000000     0.796010000000     0.540880000000     0.0349537  
H244     H      0.306010000000     0.883290000000     0.967550000000     0.0356871  
H245     H      0.637660000000     0.885580000000     0.544730000000     0.0359541  
H246     H      0.637310000000     0.793100000000     0.975020000000     0.036309   
H247     H      0.712160000000     0.795430000000     0.973120000000     0.0352516  
H248     H      0.712770000000     0.883390000000     0.546010000000     0.0356345  
H249     H      0.516810000000     0.905260000000     0.911190000000     0.0391737  
H250     H      0.503750000000     0.774310000000     0.911180000000     0.0393406  
H251     H      0.503160000000     0.774360000000     0.855790000000     0.0390648  
H252     H      0.516180000000     0.905320000000     0.855780000000     0.0388769  
H253     H      0.513510000000     0.774420000000     0.605790000000     0.0388066  
H254     H      0.500050000000     0.905320000000     0.605740000000     0.0387283  
H255     H      0.500290000000     0.905360000000     0.661180000000     0.0387753  
H256     H      0.513780000000     0.774460000000     0.661190000000     0.0387657  
N1       N      0.175100000000     0.050470000000     0.252580000000    -0.175264   
N2       N      0.175520000000     0.964520000000     0.252300000000    -0.175392   
N3       N      0.175930000000     0.050730000000     0.506200000000    -0.175243   
N4       N      0.175970000000     0.964780000000     0.505290000000    -0.175303   
N5       N      0.964530000000     0.174330000000     0.259210000000    -0.175197   
N6       N      0.050500000000     0.174290000000     0.258460000000    -0.175214   
N7       N      0.050870000000     0.174090000000     0.510320000000    -0.175212   
N8       N      0.964890000000     0.174180000000     0.509760000000    -0.175243   
N9       N      0.965230000000     0.840990000000     0.251540000000    -0.175316   
N10      N      0.051200000000     0.840560000000     0.251710000000    -0.175384   
N11      N      0.840120000000     0.964920000000     0.254410000000    -0.175243   
N12      N      0.839730000000     0.050840000000     0.255320000000    -0.175275   
N13      N      0.051650000000     0.840120000000     0.504910000000    -0.175348   
N14      N      0.965700000000     0.840010000000     0.005560000000    -0.176463   
N15      N      0.841130000000     0.964410000000     0.005220000000    -0.176491   
N16      N      0.840750000000     0.050350000000     0.504950000000    -0.175335   
N17      N      0.176050000000     0.631190000000     0.258560000000    -0.176446   
N18      N      0.175840000000     0.716450000000     0.257070000000    -0.176618   
N19      N      0.174340000000     0.383720000000     0.258540000000    -0.17645    
N20      N      0.174070000000     0.298390000000     0.257840000000    -0.176399   
N21      N      0.176610000000     0.631470000000     0.505610000000    -0.176563   
N22      N      0.177110000000     0.716670000000     0.503810000000    -0.176647   
N23      N      0.174030000000     0.383960000000     0.510680000000    -0.176589   
N24      N      0.173840000000     0.298650000000     0.510570000000    -0.176491   
N25      N      0.177360000000     0.505650000000     0.415820000000    -0.1755     
N26      N      0.177170000000     0.506370000000     0.351610000000    -0.175416   
N27      N      0.173250000000     0.509520000000     0.101630000000    -0.175369   
N28      N      0.173380000000     0.508590000000     0.165880000000    -0.175321   
N29      N      0.383640000000     0.174250000000     0.249780000000    -0.176564   
N30      N      0.298350000000     0.174340000000     0.251200000000    -0.176436   
N31      N      0.631300000000     0.175220000000     0.252300000000    -0.176687   
N32      N      0.716560000000     0.175540000000     0.254550000000    -0.176487   
N33      N      0.384060000000     0.175210000000     0.502330000000    -0.176564   
N34      N      0.298800000000     0.175570000000     0.504850000000    -0.176417   
N35      N      0.631750000000     0.174170000000     0.500270000000    -0.176555   
N36      N      0.717040000000     0.174290000000     0.502230000000    -0.176422   
N37      N      0.506510000000     0.174620000000     0.407420000000    -0.175451   
N38      N      0.506240000000     0.174970000000     0.343210000000    -0.175533   
N39      N      0.509070000000     0.174960000000     0.093220000000    -0.175611   
N40      N      0.508950000000     0.174650000000     0.157420000000    -0.175549   
N41      N      0.841420000000     0.384120000000     0.260680000000    -0.176417   
N42      N      0.841320000000     0.298780000000     0.260140000000    -0.176409   
N43      N      0.841370000000     0.631600000000     0.255930000000    -0.176386   
N44      N      0.842050000000     0.716880000000     0.253590000000    -0.176392   
N45      N      0.841210000000     0.383650000000     0.508650000000    -0.176466   
N46      N      0.841250000000     0.298310000000     0.508220000000    -0.176479   
N47      N      0.840460000000     0.631120000000     0.010110000000    -0.178192   
N48      N      0.840610000000     0.716370000000     0.009710000000    -0.177776   
N49      N      0.840980000000     0.509060000000     0.416300000000    -0.175218   
N50      N      0.841070000000     0.509840000000     0.352050000000    -0.175224   
N51      N      0.840870000000     0.505990000000     0.102080000000    -0.175491   
N52      N      0.840980000000     0.505670000000     0.166290000000    -0.175467   
N53      N      0.384520000000     0.839240000000     0.258680000000    -0.176428   
N54      N      0.299250000000     0.839470000000     0.257370000000    -0.176671   
N55      N      0.631960000000     0.840580000000     0.257700000000    -0.176495   
N56      N      0.717270000000     0.840610000000     0.256440000000    -0.176488   
N57      N      0.385010000000     0.839880000000     0.505860000000    -0.176501   
N58      N      0.299780000000     0.839720000000     0.504150000000    -0.176704   
N59      N      0.632330000000     0.839390000000     0.009860000000    -0.178201   
N60      N      0.717610000000     0.839490000000     0.009500000000    -0.177783   
N61      N      0.510250000000     0.839790000000     0.415600000000    -0.175404   
N62      N      0.509530000000     0.839850000000     0.351370000000    -0.17542    
N63      N      0.506840000000     0.839880000000     0.101350000000    -0.175247   
N64      N      0.507140000000     0.839930000000     0.165610000000    -0.175294   
N65      N      0.175100000000     0.050470000000     0.752580000000    -0.175317   
N66      N      0.175520000000     0.964520000000     0.752300000000    -0.175341   
N67      N      0.175920000000     0.050730000000     0.006200000000    -0.176379   
N68      N      0.175970000000     0.964780000000     0.005290000000    -0.176442   
N69      N      0.964530000000     0.174330000000     0.759210000000    -0.175195   
N70      N      0.050500000000     0.174290000000     0.758460000000    -0.175214   
N71      N      0.050870000000     0.174090000000     0.010320000000    -0.176353   
N72      N      0.964890000000     0.174180000000     0.009760000000    -0.176385   
N73      N      0.965230000000     0.840990000000     0.751540000000    -0.175283   
N74      N      0.051200000000     0.840560000000     0.751710000000    -0.175394   
N75      N      0.840120000000     0.964920000000     0.754410000000    -0.175244   
N76      N      0.839730000000     0.050840000000     0.755320000000    -0.175269   
N77      N      0.051650000000     0.840120000000     0.004910000000    -0.176498   
N78      N      0.965700000000     0.840010000000     0.505560000000    -0.175358   
N79      N      0.841130000000     0.964410000000     0.505220000000    -0.175356   
N80      N      0.840750000000     0.050350000000     0.004950000000    -0.176439   
N81      N      0.176050000000     0.631190000000     0.758560000000    -0.176436   
N82      N      0.175840000000     0.716450000000     0.757070000000    -0.176614   
N83      N      0.174340000000     0.383720000000     0.758540000000    -0.176443   
N84      N      0.174070000000     0.298390000000     0.757840000000    -0.176394   
N85      N      0.176610000000     0.631470000000     0.005610000000    -0.17823    
N86      N      0.177110000000     0.716680000000     0.003810000000    -0.177801   
N87      N      0.174030000000     0.383960000000     0.010680000000    -0.178289   
N88      N      0.173840000000     0.298650000000     0.010570000000    -0.177587   
N89      N      0.177360000000     0.505650000000     0.915820000000    -0.175312   
N90      N      0.177170000000     0.506370000000     0.851610000000    -0.175401   
N91      N      0.173260000000     0.509520000000     0.601630000000    -0.175381   
N92      N      0.173380000000     0.508590000000     0.665880000000    -0.175318   
N93      N      0.383640000000     0.174250000000     0.749780000000    -0.176505   
N94      N      0.298350000000     0.174340000000     0.751200000000    -0.176434   
N95      N      0.631300000000     0.175220000000     0.752300000000    -0.176681   
N96      N      0.716560000000     0.175540000000     0.754550000000    -0.176482   
N97      N      0.384060000000     0.175210000000     0.002330000000    -0.177715   
N98      N      0.298800000000     0.175580000000     0.004850000000    -0.177549   
N99      N      0.631750000000     0.174170000000     0.000270000000    -0.180545   
N100     N      0.717040000000     0.174290000000     0.002230000000    -0.177474   
N101     N      0.506510000000     0.174620000000     0.907420000000    -0.17534    
N102     N      0.506240000000     0.174970000000     0.843210000000    -0.175521   
N103     N      0.509080000000     0.174960000000     0.593220000000    -0.175515   
N104     N      0.508950000000     0.174650000000     0.657420000000    -0.175543   
N105     N      0.841420000000     0.384120000000     0.760680000000    -0.176411   
N106     N      0.841320000000     0.298780000000     0.760140000000    -0.176404   
N107     N      0.841370000000     0.631600000000     0.755930000000    -0.17638    
N108     N      0.842050000000     0.716880000000     0.753590000000    -0.176388   
N109     N      0.841210000000     0.383650000000     0.008650000000    -0.178137   
N110     N      0.841250000000     0.298310000000     0.008220000000    -0.177584   
N111     N      0.840460000000     0.631120000000     0.510110000000    -0.176479   
N112     N      0.840610000000     0.716370000000     0.509710000000    -0.176674   
N113     N      0.840980000000     0.509060000000     0.916300000000    -0.174998   
N114     N      0.841070000000     0.509840000000     0.852050000000    -0.17521    
N115     N      0.840870000000     0.505990000000     0.602080000000    -0.1755     
N116     N      0.840980000000     0.505670000000     0.666280000000    -0.175393   
N117     N      0.384520000000     0.839240000000     0.758680000000    -0.17642    
N118     N      0.299250000000     0.839470000000     0.757370000000    -0.176665   
N119     N      0.631970000000     0.840580000000     0.757700000000    -0.176432   
N120     N      0.717270000000     0.840610000000     0.756440000000    -0.176482   
N121     N      0.385010000000     0.839880000000     0.005860000000    -0.178168   
N122     N      0.299780000000     0.839720000000     0.004150000000    -0.1778     
N123     N      0.632330000000     0.839390000000     0.509860000000    -0.176493   
N124     N      0.717610000000     0.839490000000     0.509500000000    -0.176685   
N125     N      0.510250000000     0.839790000000     0.915600000000    -0.175177   
N126     N      0.509530000000     0.839850000000     0.851370000000    -0.175405   
N127     N      0.506840000000     0.839880000000     0.601350000000    -0.175265   
N128     N      0.507140000000     0.839930000000     0.665610000000    -0.175287   
O1       O      0.446560000000     0.874010000000     0.503940000000    -0.393717   
O2       O      0.570960000000     0.873700000000     0.512810000000    -0.393498   
O3       O      0.513440000000     0.873890000000     0.461930000000    -0.394386   
O4       O      0.504010000000     0.873970000000     0.054980000000    -0.393851   
O5       O      0.510820000000     0.805740000000     0.055070000000    -0.394553   
O6       O      0.506290000000     0.805690000000     0.461870000000    -0.39506    
O7       O      0.570840000000     0.805600000000     0.006020000000    -0.395808   
O8       O      0.446260000000     0.805920000000     0.010790000000    -0.395151   
O9       O      0.445760000000     0.873640000000     0.262260000000    -0.393935   
O10      O      0.570250000000     0.874300000000     0.254830000000    -0.394251   
O11      O      0.504050000000     0.874040000000     0.211960000000    -0.394376   
O12      O      0.512010000000     0.874040000000     0.305060000000    -0.39479    
O13      O      0.505530000000     0.805770000000     0.305080000000    -0.394791   
O14      O      0.511350000000     0.805850000000     0.211900000000    -0.394503   
O15      O      0.570740000000     0.806180000000     0.261490000000    -0.394298   
O16      O      0.446160000000     0.805530000000     0.255490000000    -0.394472   
O17      O      0.806590000000     0.569610000000     0.006720000000    -0.395548   
O18      O      0.806880000000     0.444990000000     0.011740000000    -0.394878   
O19      O      0.806660000000     0.509440000000     0.055820000000    -0.394444   
O20      O      0.806750000000     0.505200000000     0.462570000000    -0.394523   
O21      O      0.875090000000     0.511110000000     0.462670000000    -0.39471    
O22      O      0.875040000000     0.503950000000     0.055780000000    -0.394765   
O23      O      0.875130000000     0.445260000000     0.505800000000    -0.394297   
O24      O      0.874820000000     0.569790000000     0.512850000000    -0.394017   
O25      O      0.806950000000     0.570090000000     0.254890000000    -0.393424   
O26      O      0.807070000000     0.445560000000     0.263220000000    -0.393451   
O27      O      0.806930000000     0.512060000000     0.305690000000    -0.394455   
O28      O      0.806870000000     0.503580000000     0.212630000000    -0.39477    
O29      O      0.875240000000     0.509220000000     0.212510000000    -0.395153   
O30      O      0.875310000000     0.506600000000     0.305770000000    -0.394806   
O31      O      0.875330000000     0.445620000000     0.257300000000    -0.395195   
O32      O      0.875210000000     0.570240000000     0.260770000000    -0.395031   
O33      O      0.570500000000     0.208830000000     0.498430000000    -0.394108   
O34      O      0.445550000000     0.209350000000     0.499550000000    -0.394208   
O35      O      0.508750000000     0.209110000000     0.046660000000    -0.395852   
O36      O      0.507280000000     0.209050000000     0.453440000000    -0.397715   
O37      O      0.507010000000     0.140470000000     0.453980000000    -0.393921   
O38      O      0.508500000000     0.140520000000     0.047210000000    -0.397675   
O39      O      0.445400000000     0.140710000000     0.502350000000    -0.395154   
O40      O      0.570130000000     0.140200000000     0.501220000000    -0.395331   
O41      O      0.444920000000     0.208910000000     0.248310000000    -0.394246   
O42      O      0.569830000000     0.209360000000     0.249610000000    -0.394464   
O43      O      0.508210000000     0.209090000000     0.203430000000    -0.39782    
O44      O      0.506560000000     0.209130000000     0.296660000000    -0.3936     
O45      O      0.506770000000     0.140540000000     0.297200000000    -0.397946   
O46      O      0.508480000000     0.140510000000     0.203970000000    -0.394037   
O47      O      0.569970000000     0.140730000000     0.252420000000    -0.395326   
O48      O      0.445250000000     0.140270000000     0.251060000000    -0.395358   
O49      O      0.141610000000     0.570420000000     0.505420000000    -0.394551   
O50      O      0.140380000000     0.445700000000     0.508380000000    -0.395118   
O51      O      0.139770000000     0.509890000000     0.054750000000    -0.392371   
O52      O      0.142260000000     0.506210000000     0.461530000000    -0.398315   
O53      O      0.210840000000     0.506330000000     0.462680000000    -0.392947   
O54      O      0.208330000000     0.508530000000     0.055910000000    -0.397712   
O55      O      0.209010000000     0.445050000000     0.511390000000    -0.394658   
O56      O      0.210160000000     0.569840000000     0.509390000000    -0.394836   
O57      O      0.141640000000     0.570010000000     0.262490000000    -0.394107   
O58      O      0.140690000000     0.445480000000     0.255790000000    -0.394323   
O59      O      0.142320000000     0.504230000000     0.305610000000    -0.395749   
O60      O      0.139900000000     0.511240000000     0.212510000000    -0.394167   
O61      O      0.208140000000     0.504450000000     0.211870000000    -0.395379   
O62      O      0.210660000000     0.510010000000     0.305030000000    -0.394326   
O63      O      0.208980000000     0.444920000000     0.261420000000    -0.394236   
O64      O      0.209710000000     0.569510000000     0.255420000000    -0.394427   
O65      O      0.843410000000     0.778680000000     0.034240000000    -0.393412   
O66      O      0.842510000000     0.903310000000     0.031670000000    -0.396686   
O67      O      0.779880000000     0.842380000000     0.034080000000    -0.393495   
O68      O      0.904560000000     0.841070000000     0.031980000000    -0.396409   
O69      O      0.902960000000     0.839060000000     0.480750000000    -0.393693   
O70      O      0.778100000000     0.837790000000     0.482820000000    -0.395384   
O71      O      0.840150000000     0.901640000000     0.480450000000    -0.393341   
O72      O      0.839220000000     0.776790000000     0.482970000000    -0.395823   
O73      O      0.846830000000     0.778220000000     0.278830000000    -0.396941   
O74      O      0.838720000000     0.902520000000     0.279460000000    -0.395498   
O75      O      0.779830000000     0.835590000000     0.280450000000    -0.394635   
O76      O      0.904080000000     0.843660000000     0.277800000000    -0.398146   
O77      O      0.902440000000     0.838340000000     0.226720000000    -0.391646   
O78      O      0.777600000000     0.845120000000     0.229630000000    -0.394254   
O79      O      0.842480000000     0.903420000000     0.228280000000    -0.394037   
O80      O      0.835880000000     0.778500000000     0.228140000000    -0.391475   
O81      O      0.846900000000     0.237590000000     0.482050000000    -0.395042   
O82      O      0.838900000000     0.112890000000     0.479830000000    -0.392802   
O83      O      0.779990000000     0.180080000000     0.478930000000    -0.393787   
O84      O      0.904190000000     0.171930000000     0.482880000000    -0.397499   
O85      O      0.901660000000     0.176890000000     0.033960000000    -0.391069   
O86      O      0.776900000000     0.169300000000     0.029590000000    -0.393354   
O87      O      0.842350000000     0.111720000000     0.031010000000    -0.395887   
O88      O      0.834730000000     0.236100000000     0.032560000000    -0.392971   
O89      O      0.846160000000     0.238330000000     0.233550000000    -0.395286   
O90      O      0.837900000000     0.113740000000     0.230760000000    -0.393556   
O91      O      0.779150000000     0.181070000000     0.230800000000    -0.394927   
O92      O      0.903220000000     0.172550000000     0.233200000000    -0.398567   
O93      O      0.901860000000     0.176710000000     0.284350000000    -0.390907   
O94      O      0.776820000000     0.169920000000     0.281440000000    -0.393269   
O95      O      0.841910000000     0.111830000000     0.281910000000    -0.395867   
O96      O      0.835120000000     0.236330000000     0.284210000000    -0.393153   
O97      O      0.173590000000     0.111780000000     0.032730000000    -0.394747   
O98      O      0.180380000000     0.236320000000     0.034740000000    -0.392291   
O99      O      0.113660000000     0.176680000000     0.035260000000    -0.390025   
O100     O      0.238700000000     0.169900000000     0.031920000000    -0.392378   
O101     O      0.236070000000     0.181110000000     0.481300000000    -0.394885   
O102     O      0.112040000000     0.172120000000     0.484140000000    -0.398549   
O103     O      0.168790000000     0.238120000000     0.484150000000    -0.395366   
O104     O      0.177620000000     0.113580000000     0.481580000000    -0.393535   
O105     O      0.180590000000     0.235860000000     0.281760000000    -0.393419   
O106     O      0.173040000000     0.111470000000     0.279120000000    -0.396831   
O107     O      0.238390000000     0.169100000000     0.278350000000    -0.394861   
O108     O      0.113720000000     0.176610000000     0.282630000000    -0.392355   
O109     O      0.111190000000     0.172320000000     0.231510000000    -0.396839   
O110     O      0.235490000000     0.180580000000     0.227770000000    -0.393373   
O111     O      0.176620000000     0.113370000000     0.227960000000    -0.392734   
O112     O      0.168490000000     0.238010000000     0.231240000000    -0.394884   
O113     O      0.174510000000     0.778360000000     0.478300000000    -0.392582   
O114     O      0.175550000000     0.903350000000     0.479060000000    -0.395158   
O115     O      0.238200000000     0.842130000000     0.478470000000    -0.392769   
O116     O      0.113220000000     0.840970000000     0.478870000000    -0.39536    
O117     O      0.113980000000     0.839630000000     0.030120000000    -0.394623   
O118     O      0.238600000000     0.838840000000     0.029800000000    -0.396338   
O119     O      0.176290000000     0.902320000000     0.030320000000    -0.394524   
O120     O      0.177900000000     0.777710000000     0.029620000000    -0.396149   
O121     O      0.177910000000     0.776710000000     0.230020000000    -0.394429   
O122     O      0.176950000000     0.901790000000     0.227330000000    -0.391805   
O123     O      0.239110000000     0.837830000000     0.230210000000    -0.39483    
O124     O      0.114120000000     0.839000000000     0.227050000000    -0.392173   
O125     O      0.112180000000     0.841550000000     0.278250000000    -0.398759   
O126     O      0.236660000000     0.842340000000     0.281450000000    -0.395048   
O127     O      0.174300000000     0.903350000000     0.278530000000    -0.399202   
O128     O      0.172990000000     0.778950000000     0.281240000000    -0.395445   
O129     O      0.446560000000     0.874010000000     0.003940000000    -0.394486   
O130     O      0.570960000000     0.873700000000     0.012810000000    -0.393815   
O131     O      0.513440000000     0.873890000000     0.961930000000    -0.391985   
O132     O      0.504010000000     0.873970000000     0.554980000000    -0.394221   
O133     O      0.510820000000     0.805740000000     0.555070000000    -0.394889   
O134     O      0.506290000000     0.805690000000     0.961870000000    -0.392665   
O135     O      0.570840000000     0.805590000000     0.506020000000    -0.394892   
O136     O      0.446260000000     0.805920000000     0.510790000000    -0.394856   
O137     O      0.445760000000     0.873640000000     0.762260000000    -0.393923   
O138     O      0.570250000000     0.874300000000     0.754830000000    -0.394216   
O139     O      0.504050000000     0.874040000000     0.711960000000    -0.394379   
O140     O      0.512010000000     0.874040000000     0.805060000000    -0.394753   
O141     O      0.505530000000     0.805770000000     0.805080000000    -0.39474    
O142     O      0.511350000000     0.805850000000     0.711900000000    -0.394487   
O143     O      0.570740000000     0.806180000000     0.761490000000    -0.394249   
O144     O      0.446160000000     0.805530000000     0.755490000000    -0.394442   
O145     O      0.806580000000     0.569610000000     0.506720000000    -0.394637   
O146     O      0.806880000000     0.444990000000     0.511740000000    -0.394533   
O147     O      0.806660000000     0.509440000000     0.555820000000    -0.394767   
O148     O      0.806750000000     0.505200000000     0.962570000000    -0.392143   
O149     O      0.875090000000     0.511110000000     0.962670000000    -0.392334   
O150     O      0.875040000000     0.503950000000     0.555780000000    -0.395111   
O151     O      0.875130000000     0.445260000000     0.005800000000    -0.395089   
O152     O      0.874820000000     0.569790000000     0.012850000000    -0.394368   
O153     O      0.806950000000     0.570090000000     0.754890000000    -0.393396   
O154     O      0.807070000000     0.445560000000     0.763220000000    -0.393427   
O155     O      0.806930000000     0.512060000000     0.805690000000    -0.394408   
O156     O      0.806870000000     0.503580000000     0.712630000000    -0.394794   
O157     O      0.875240000000     0.509220000000     0.712510000000    -0.39505    
O158     O      0.875310000000     0.506600000000     0.805770000000    -0.394781   
O159     O      0.875330000000     0.445620000000     0.757300000000    -0.395185   
O160     O      0.875210000000     0.570240000000     0.760770000000    -0.395016   
O161     O      0.570500000000     0.208830000000     0.998430000000    -0.395213   
O162     O      0.445550000000     0.209350000000     0.999550000000    -0.391319   
O163     O      0.508750000000     0.209110000000     0.546660000000    -0.393595   
O164     O      0.507280000000     0.209050000000     0.953440000000    -0.398006   
O165     O      0.507010000000     0.140470000000     0.953980000000    -0.391674   
O166     O      0.508500000000     0.140520000000     0.547210000000    -0.397988   
O167     O      0.445400000000     0.140710000000     0.002350000000    -0.394613   
O168     O      0.570130000000     0.140200000000     0.001220000000    -0.398774   
O169     O      0.444920000000     0.208910000000     0.748310000000    -0.394278   
O170     O      0.569830000000     0.209360000000     0.749610000000    -0.394436   
O171     O      0.508210000000     0.209090000000     0.703430000000    -0.39779    
O172     O      0.506560000000     0.209130000000     0.796660000000    -0.393568   
O173     O      0.506770000000     0.140540000000     0.797200000000    -0.397917   
O174     O      0.508480000000     0.140510000000     0.703970000000    -0.394037   
O175     O      0.569970000000     0.140730000000     0.752420000000    -0.395317   
O176     O      0.445250000000     0.140270000000     0.751060000000    -0.39541    
O177     O      0.141610000000     0.570420000000     0.005420000000    -0.395272   
O178     O      0.140380000000     0.445700000000     0.008380000000    -0.395858   
O179     O      0.139770000000     0.509890000000     0.554750000000    -0.392704   
O180     O      0.142260000000     0.506210000000     0.961530000000    -0.396      
O181     O      0.210830000000     0.506330000000     0.962680000000    -0.390656   
O182     O      0.208330000000     0.508530000000     0.555910000000    -0.39807    
O183     O      0.209010000000     0.445050000000     0.011390000000    -0.395032   
O184     O      0.210160000000     0.569840000000     0.009390000000    -0.395179   
O185     O      0.141640000000     0.570010000000     0.762490000000    -0.394096   
O186     O      0.140690000000     0.445480000000     0.755790000000    -0.394313   
O187     O      0.142320000000     0.504230000000     0.805610000000    -0.395722   
O188     O      0.139900000000     0.511240000000     0.712510000000    -0.394167   
O189     O      0.208140000000     0.504450000000     0.711870000000    -0.395363   
O190     O      0.210660000000     0.510010000000     0.805030000000    -0.394275   
O191     O      0.208980000000     0.444920000000     0.761420000000    -0.394209   
O192     O      0.209710000000     0.569510000000     0.755420000000    -0.394397   
O193     O      0.843410000000     0.778680000000     0.534240000000    -0.394154   
O194     O      0.842510000000     0.903310000000     0.531670000000    -0.397588   
O195     O      0.779880000000     0.842380000000     0.534080000000    -0.394334   
O196     O      0.904560000000     0.841070000000     0.531980000000    -0.397294   
O197     O      0.902960000000     0.839060000000     0.980750000000    -0.390766   
O198     O      0.778100000000     0.837790000000     0.982820000000    -0.392473   
O199     O      0.840150000000     0.901630000000     0.980450000000    -0.390417   
O200     O      0.839220000000     0.776790000000     0.982970000000    -0.392821   
O201     O      0.846830000000     0.778220000000     0.778830000000    -0.396918   
O202     O      0.838720000000     0.902520000000     0.779460000000    -0.395481   
O203     O      0.779830000000     0.835590000000     0.780450000000    -0.394607   
O204     O      0.904080000000     0.843660000000     0.777800000000    -0.398133   
O205     O      0.902440000000     0.838340000000     0.726720000000    -0.391645   
O206     O      0.777600000000     0.845120000000     0.729630000000    -0.394248   
O207     O      0.842480000000     0.903420000000     0.728280000000    -0.39404    
O208     O      0.835880000000     0.778500000000     0.728140000000    -0.391468   
O209     O      0.846900000000     0.237590000000     0.982050000000    -0.392136   
O210     O      0.838900000000     0.112890000000     0.979830000000    -0.389857   
O211     O      0.779990000000     0.180080000000     0.978930000000    -0.390819   
O212     O      0.904190000000     0.171930000000     0.982880000000    -0.394615   
O213     O      0.901660000000     0.176890000000     0.533960000000    -0.391893   
O214     O      0.776900000000     0.169300000000     0.529590000000    -0.394216   
O215     O      0.842350000000     0.111720000000     0.531010000000    -0.396771   
O216     O      0.834730000000     0.236100000000     0.532560000000    -0.393793   
O217     O      0.846160000000     0.238330000000     0.733550000000    -0.395277   
O218     O      0.837900000000     0.113740000000     0.730760000000    -0.393558   
O219     O      0.779150000000     0.181070000000     0.730800000000    -0.39492    
O220     O      0.903220000000     0.172550000000     0.733200000000    -0.398567   
O221     O      0.901860000000     0.176710000000     0.784350000000    -0.390893   
O222     O      0.776820000000     0.169920000000     0.781440000000    -0.393242   
O223     O      0.841910000000     0.111830000000     0.781910000000    -0.395851   
O224     O      0.835120000000     0.236330000000     0.784210000000    -0.393129   
O225     O      0.173590000000     0.111780000000     0.532730000000    -0.395625   
O226     O      0.180380000000     0.236320000000     0.534740000000    -0.393115   
O227     O      0.113660000000     0.176680000000     0.535260000000    -0.390842   
O228     O      0.238700000000     0.169900000000     0.531920000000    -0.393236   
O229     O      0.236070000000     0.181110000000     0.981300000000    -0.391917   
O230     O      0.112040000000     0.172120000000     0.984140000000    -0.395666   
O231     O      0.168790000000     0.238120000000     0.984150000000    -0.392452   
O232     O      0.177620000000     0.113580000000     0.981580000000    -0.390593   
O233     O      0.180590000000     0.235860000000     0.781760000000    -0.393396   
O234     O      0.173050000000     0.111470000000     0.779120000000    -0.396769   
O235     O      0.238390000000     0.169100000000     0.778350000000    -0.394827   
O236     O      0.113720000000     0.176610000000     0.782630000000    -0.392351   
O237     O      0.111190000000     0.172320000000     0.731510000000    -0.39684    
O238     O      0.235490000000     0.180580000000     0.727770000000    -0.393364   
O239     O      0.176620000000     0.113370000000     0.727960000000    -0.392675   
O240     O      0.168490000000     0.238010000000     0.731240000000    -0.394875   
O241     O      0.174510000000     0.778360000000     0.978300000000    -0.389632   
O242     O      0.175550000000     0.903350000000     0.979060000000    -0.392283   
O243     O      0.238200000000     0.842130000000     0.978470000000    -0.389797   
O244     O      0.113220000000     0.840970000000     0.978870000000    -0.392584   
O245     O      0.113980000000     0.839630000000     0.530120000000    -0.395552   
O246     O      0.238600000000     0.838840000000     0.529800000000    -0.397235   
O247     O      0.176290000000     0.902320000000     0.530320000000    -0.395362   
O248     O      0.177900000000     0.777710000000     0.529620000000    -0.397017   
O249     O      0.177910000000     0.776710000000     0.730020000000    -0.394428   
O250     O      0.176950000000     0.901790000000     0.727330000000    -0.391871   
O251     O      0.239110000000     0.837830000000     0.730210000000    -0.39483    
O252     O      0.114120000000     0.839000000000     0.727050000000    -0.392176   
O253     O      0.112180000000     0.841550000000     0.778250000000    -0.39875    
O254     O      0.236660000000     0.842340000000     0.781450000000    -0.395014   
O255     O      0.174300000000     0.903350000000     0.778530000000    -0.399252   
O256     O      0.172990000000     0.778950000000     0.781240000000    -0.395412   


