data_structure

_audit_creation_method RASPA-1.0
_audit_creation_date 2023-6-4
_audit_author_name 'Poobodin Mano'

_cell_length_a    29.0065
_cell_length_b    29.4341
_cell_length_c    21.3609
_cell_angle_alpha 89.9989
_cell_angle_beta  89.9989
_cell_angle_gamma 96.7516
_cell_volume      18111

_symmetry_cell_setting          triclinic
_symmetry_space_group_name_Hall 'P 1'
_symmetry_space_group_name_H-M  'P 1'
_symmetry_Int_Tables_number     1

_symmetry_equiv_pos_as_xyz 'x,y,z'

loop_
_atom_site_label
_atom_site_type_symbol
_atom_site_fract_x
_atom_site_fract_y
_atom_site_fract_z
_atom_site_charge
Br1      Br     0.155810000000     0.177550000000     0.816470000000    -0.21717    
Br2      Br     0.343310000000     0.234740000000     0.316480000000    -0.15708    
Br3      Br     0.232930000000     0.383170000000     0.447250000000    -0.263776   
Br4      Br     0.381350000000     0.245020000000     0.525150000000    -0.173319   
Br5      Br     0.373420000000     0.181120000000     0.383290000000    -0.16054    
Br6      Br     0.243500000000     0.103810000000     0.469930000000    -0.180103   
Br7      Br     0.142940000000     0.463060000000     0.090250000000    -0.213278   
Br8      Br     0.443480000000     0.345110000000     0.102580000000    -0.201514   
Br9      Br     0.457890000000     0.141750000000     0.922480000000    -0.200737   
Br10     Br     0.029480000000     0.144290000000     0.090330000000    -0.194973   
Br11     Br     0.155810000000     0.677550000000     0.816470000000    -0.217216   
Br12     Br     0.343310000000     0.734740000000     0.316480000000    -0.157103   
Br13     Br     0.232930000000     0.883170000000     0.447250000000    -0.263876   
Br14     Br     0.381350000000     0.745020000000     0.525150000000    -0.173319   
Br15     Br     0.373420000000     0.681120000000     0.383290000000    -0.160569   
Br16     Br     0.243500000000     0.603810000000     0.469930000000    -0.180214   
Br17     Br     0.142940000000     0.963060000000     0.090250000000    -0.213515   
Br18     Br     0.443480000000     0.845110000000     0.102580000000    -0.201527   
Br19     Br     0.457890000000     0.641750000000     0.922480000000    -0.20078    
Br20     Br     0.029480000000     0.644290000000     0.090330000000    -0.195022   
Br21     Br     0.655810000000     0.177550000000     0.816470000000    -0.217201   
Br22     Br     0.843310000000     0.234740000000     0.316480000000    -0.157107   
Br23     Br     0.732930000000     0.383170000000     0.447250000000    -0.263804   
Br24     Br     0.881350000000     0.245020000000     0.525150000000    -0.173363   
Br25     Br     0.873420000000     0.181120000000     0.383290000000    -0.160577   
Br26     Br     0.743500000000     0.103810000000     0.469930000000    -0.180104   
Br27     Br     0.642940000000     0.463060000000     0.090250000000    -0.213306   
Br28     Br     0.943480000000     0.345110000000     0.102580000000    -0.201652   
Br29     Br     0.957890000000     0.141750000000     0.922480000000    -0.200881   
Br30     Br     0.529480000000     0.144290000000     0.090330000000    -0.195148   
Br31     Br     0.655810000000     0.677550000000     0.816470000000    -0.217264   
Br32     Br     0.843310000000     0.734740000000     0.316480000000    -0.15713    
Br33     Br     0.732930000000     0.883170000000     0.447250000000    -0.263904   
Br34     Br     0.881350000000     0.745020000000     0.525150000000    -0.173369   
Br35     Br     0.873420000000     0.681120000000     0.383290000000    -0.160607   
Br36     Br     0.743500000000     0.603810000000     0.469930000000    -0.180217   
Br37     Br     0.642940000000     0.963060000000     0.090250000000    -0.21354    
Br38     Br     0.943480000000     0.845110000000     0.102580000000    -0.201666   
Br39     Br     0.957890000000     0.641750000000     0.922480000000    -0.200924   
Br40     Br     0.529480000000     0.644290000000     0.090330000000    -0.195191   
C1       C      0.053150000000     0.433650000000     0.006520000000     0.406233   
C2       C      0.425070000000     0.053570000000     0.004600000000     0.406227   
C3       C      0.052820000000     0.061940000000     0.003980000000     0.446482   
C4       C      0.424160000000     0.424250000000     0.007170000000     0.437522   
C5       C      0.061720000000     0.418450000000     0.497760000000     0.390005   
C6       C      0.439700000000     0.045180000000     0.500840000000     0.388927   
C7       C      0.070280000000     0.043820000000     0.517210000000     0.422787   
C8       C      0.431860000000     0.416710000000     0.481330000000     0.422755   
C9       C      0.239760000000     0.243120000000     0.884490000000     0.475123   
C10      C      0.237520000000     0.240440000000     0.125160000000     0.466302   
C11      C      0.297630000000     0.182830000000     0.004750000000     0.442988   
C12      C      0.180040000000     0.303870000000     0.005130000000     0.44247    
C13      C      0.244030000000     0.227340000000     0.384180000000     0.477677   
C14      C      0.252290000000     0.238190000000     0.624310000000     0.465083   
C15      C      0.311050000000     0.173910000000     0.503470000000     0.43863    
C16      C      0.187070000000     0.288130000000     0.504540000000     0.47956    
C17      C      0.279170000000     0.269530000000     0.723360000000     0.0338191  
C18      C      0.215370000000     0.212430000000     0.719150000000     0.000369916
C19      C      0.275100000000     0.270650000000     0.788890000000     0.0386087  
C20      C      0.210440000000     0.213930000000     0.784240000000     0.155004   
C21      C      0.200100000000     0.220440000000     0.222840000000     0.03673    
C22      C      0.279540000000     0.248620000000     0.220730000000     0.00557081 
C23      C      0.202150000000     0.216130000000     0.288200000000     0.0456699  
C24      C      0.282370000000     0.241530000000     0.285310000000     0.157594   
C25      C      0.081980000000     0.345320000000     0.527050000000     0.0310366  
C26      C      0.136060000000     0.395440000000     0.470640000000    -0.000296811
C27      C      0.112800000000     0.311800000000     0.526120000000     0.0430657  
C28      C      0.169440000000     0.363910000000     0.476080000000     0.161665   
C29      C      0.355440000000     0.389610000000     0.455060000000     0.0516171  
C30      C      0.407130000000     0.339990000000     0.496120000000     0.0200293  
C31      C      0.318160000000     0.355870000000     0.463920000000     0.0308648  
C32      C      0.371000000000     0.305500000000     0.501120000000     0.133156   
C33      C      0.377910000000     0.080020000000     0.550440000000     0.0316563  
C34      C      0.406790000000     0.108530000000     0.453610000000     0.00267411 
C35      C      0.344840000000     0.111730000000     0.550070000000     0.0501789  
C36      C      0.375110000000     0.141730000000     0.454520000000     0.16153    
C37      C      0.100030000000     0.114420000000     0.558520000000     0.0369583  
C38      C      0.147070000000     0.071700000000     0.495170000000     0.0108832  
C39      C      0.132980000000     0.152180000000     0.553500000000     0.0447348  
C40      C      0.181450000000     0.108290000000     0.495360000000     0.13782    
C41      C      0.108410000000     0.329820000000     0.972240000000     0.036275   
C42      C      0.157960000000     0.376080000000     0.039380000000     0.00231143 
C43      C      0.077700000000     0.363620000000     0.970740000000     0.0433702  
C44      C      0.125420000000     0.408410000000     0.042130000000     0.155914   
C45      C      0.318470000000     0.355580000000     0.967200000000     0.0300521  
C46      C      0.355300000000     0.318370000000     0.048370000000    -0.00086829 
C47      C      0.354870000000     0.389750000000     0.965930000000     0.0489917  
C48      C      0.391390000000     0.353310000000     0.049140000000     0.163192   
C49      C      0.320780000000     0.110550000000     0.037390000000     0.0348936  
C50      C      0.369760000000     0.158420000000     0.971450000000     0.00614511 
C51      C      0.354190000000     0.079210000000     0.039490000000     0.0409878  
C52      C      0.401520000000     0.125450000000     0.969210000000     0.158515   
C53      C      0.159580000000     0.129430000000     0.965960000000     0.0411201  
C54      C      0.119560000000     0.169520000000     0.040880000000     0.000970094
C55      C      0.123070000000     0.095290000000     0.964150000000     0.0602651  
C56      C      0.083510000000     0.134620000000     0.041530000000     0.17075    
C57      C      0.053150000000     0.933650000000     0.006520000000     0.406174   
C58      C      0.425070000000     0.553560000000     0.004600000000     0.406337   
C59      C      0.052820000000     0.561940000000     0.003980000000     0.446564   
C60      C      0.424160000000     0.924250000000     0.007170000000     0.437457   
C61      C      0.061720000000     0.918450000000     0.497760000000     0.389939   
C62      C      0.439700000000     0.545180000000     0.500840000000     0.388986   
C63      C      0.070280000000     0.543820000000     0.517210000000     0.422863   
C64      C      0.431860000000     0.916710000000     0.481330000000     0.422748   
C65      C      0.239760000000     0.743120000000     0.884490000000     0.475118   
C66      C      0.237520000000     0.740440000000     0.125160000000     0.466303   
C67      C      0.297630000000     0.682830000000     0.004750000000     0.442982   
C68      C      0.180040000000     0.803870000000     0.005130000000     0.442404   
C69      C      0.244030000000     0.727340000000     0.384180000000     0.477675   
C70      C      0.252290000000     0.738190000000     0.624310000000     0.465078   
C71      C      0.311050000000     0.673910000000     0.503470000000     0.438619   
C72      C      0.187070000000     0.788130000000     0.504540000000     0.479722   
C73      C      0.279170000000     0.769530000000     0.723360000000     0.0338107  
C74      C      0.215370000000     0.712430000000     0.719150000000     0.00036084 
C75      C      0.275100000000     0.770650000000     0.788890000000     0.0385997  
C76      C      0.210440000000     0.713930000000     0.784240000000     0.154998   
C77      C      0.200100000000     0.720440000000     0.222840000000     0.0367027  
C78      C      0.279540000000     0.748620000000     0.220730000000     0.00557084 
C79      C      0.202150000000     0.716130000000     0.288200000000     0.0456665  
C80      C      0.282370000000     0.741520000000     0.285310000000     0.1576     
C81      C      0.081980000000     0.845320000000     0.527050000000     0.0310204  
C82      C      0.136060000000     0.895440000000     0.470640000000    -0.000321802
C83      C      0.112800000000     0.811800000000     0.526120000000     0.0430704  
C84      C      0.169440000000     0.863910000000     0.476080000000     0.161655   
C85      C      0.355440000000     0.889610000000     0.455060000000     0.051561   
C86      C      0.407120000000     0.839990000000     0.496120000000     0.020095   
C87      C      0.318160000000     0.855870000000     0.463920000000     0.0308572  
C88      C      0.371000000000     0.805500000000     0.501120000000     0.133119   
C89      C      0.377910000000     0.580020000000     0.550440000000     0.0316299  
C90      C      0.406790000000     0.608530000000     0.453610000000     0.00265476 
C91      C      0.344840000000     0.611730000000     0.550070000000     0.0501564  
C92      C      0.375110000000     0.641730000000     0.454520000000     0.161517   
C93      C      0.100030000000     0.614420000000     0.558520000000     0.0369467  
C94      C      0.147070000000     0.571700000000     0.495170000000     0.0108573  
C95      C      0.132980000000     0.652180000000     0.553500000000     0.0447209  
C96      C      0.181450000000     0.608290000000     0.495360000000     0.137801   
C97      C      0.108410000000     0.829820000000     0.972240000000     0.0362433  
C98      C      0.157960000000     0.876080000000     0.039380000000     0.00231926 
C99      C      0.077700000000     0.863620000000     0.970740000000     0.0433672  
C100     C      0.125420000000     0.908410000000     0.042130000000     0.155902   
C101     C      0.318470000000     0.855580000000     0.967200000000     0.0300403  
C102     C      0.355300000000     0.818370000000     0.048370000000    -0.000871875
C103     C      0.354870000000     0.889750000000     0.965930000000     0.0489694  
C104     C      0.391390000000     0.853310000000     0.049140000000     0.163181   
C105     C      0.320780000000     0.610550000000     0.037390000000     0.0348471  
C106     C      0.369760000000     0.658420000000     0.971450000000     0.00614731 
C107     C      0.354190000000     0.579220000000     0.039490000000     0.0409749  
C108     C      0.401520000000     0.625440000000     0.969210000000     0.158529   
C109     C      0.159580000000     0.629430000000     0.965960000000     0.0410984  
C110     C      0.119560000000     0.669520000000     0.040880000000     0.000957914
C111     C      0.123070000000     0.595290000000     0.964150000000     0.0602423  
C112     C      0.083510000000     0.634620000000     0.041530000000     0.170741   
C113     C      0.553150000000     0.433650000000     0.006520000000     0.406254   
C114     C      0.925070000000     0.053570000000     0.004600000000     0.406178   
C115     C      0.552820000000     0.061940000000     0.003980000000     0.446513   
C116     C      0.924160000000     0.424250000000     0.007170000000     0.437468   
C117     C      0.561730000000     0.418450000000     0.497760000000     0.389974   
C118     C      0.939700000000     0.045180000000     0.500840000000     0.388935   
C119     C      0.570280000000     0.043820000000     0.517210000000     0.422809   
C120     C      0.931860000000     0.416710000000     0.481330000000     0.422824   
C121     C      0.739760000000     0.243120000000     0.884490000000     0.475114   
C122     C      0.737520000000     0.240440000000     0.125160000000     0.466279   
C123     C      0.797630000000     0.182830000000     0.004750000000     0.442991   
C124     C      0.680040000000     0.303870000000     0.005130000000     0.442434   
C125     C      0.744030000000     0.227340000000     0.384180000000     0.477678   
C126     C      0.752290000000     0.238190000000     0.624310000000     0.46508    
C127     C      0.811050000000     0.173910000000     0.503470000000     0.438627   
C128     C      0.687070000000     0.288130000000     0.504540000000     0.479553   
C129     C      0.779170000000     0.269530000000     0.723360000000     0.0338119  
C130     C      0.715370000000     0.212430000000     0.719150000000     0.000331919
C131     C      0.775100000000     0.270650000000     0.788890000000     0.0386069  
C132     C      0.710450000000     0.213930000000     0.784240000000     0.155022   
C133     C      0.700100000000     0.220440000000     0.222840000000     0.0367247  
C134     C      0.779540000000     0.248620000000     0.220730000000     0.00556672 
C135     C      0.702150000000     0.216130000000     0.288200000000     0.0456677  
C136     C      0.782370000000     0.241530000000     0.285310000000     0.157595   
C137     C      0.581980000000     0.345320000000     0.527050000000     0.0310346  
C138     C      0.636060000000     0.395440000000     0.470640000000    -0.000279798
C139     C      0.612800000000     0.311800000000     0.526120000000     0.0430481  
C140     C      0.669450000000     0.363910000000     0.476080000000     0.161668   
C141     C      0.855440000000     0.389610000000     0.455060000000     0.0515766  
C142     C      0.907120000000     0.339990000000     0.496120000000     0.0200829  
C143     C      0.818160000000     0.355870000000     0.463920000000     0.0308725  
C144     C      0.871000000000     0.305500000000     0.501120000000     0.133121   
C145     C      0.877910000000     0.080020000000     0.550440000000     0.0316455  
C146     C      0.906800000000     0.108530000000     0.453610000000     0.00266614 
C147     C      0.844840000000     0.111730000000     0.550070000000     0.0501737  
C148     C      0.875110000000     0.141730000000     0.454520000000     0.16152    
C149     C      0.600030000000     0.114420000000     0.558520000000     0.0369477  
C150     C      0.647070000000     0.071700000000     0.495170000000     0.0108783  
C151     C      0.632980000000     0.152180000000     0.553500000000     0.0447226  
C152     C      0.681450000000     0.108290000000     0.495360000000     0.137816   
C153     C      0.608410000000     0.329820000000     0.972240000000     0.0362572  
C154     C      0.657960000000     0.376080000000     0.039380000000     0.00230354 
C155     C      0.577700000000     0.363620000000     0.970740000000     0.0433532  
C156     C      0.625420000000     0.408410000000     0.042130000000     0.155906   
C157     C      0.818470000000     0.355580000000     0.967200000000     0.0300061  
C158     C      0.855300000000     0.318370000000     0.048370000000    -0.000817028
C159     C      0.854870000000     0.389750000000     0.965930000000     0.0490055  
C160     C      0.891400000000     0.353310000000     0.049140000000     0.163179   
C161     C      0.820780000000     0.110550000000     0.037390000000     0.0348925  
C162     C      0.869760000000     0.158420000000     0.971450000000     0.00613464 
C163     C      0.854190000000     0.079210000000     0.039490000000     0.0409771  
C164     C      0.901520000000     0.125450000000     0.969210000000     0.15851    
C165     C      0.659580000000     0.129430000000     0.965960000000     0.0410984  
C166     C      0.619550000000     0.169520000000     0.040880000000     0.000903003
C167     C      0.623070000000     0.095290000000     0.964150000000     0.0602663  
C168     C      0.583510000000     0.134620000000     0.041530000000     0.17077    
C169     C      0.553150000000     0.933650000000     0.006520000000     0.406194   
C170     C      0.925070000000     0.553560000000     0.004600000000     0.406284   
C171     C      0.552820000000     0.561940000000     0.003980000000     0.446489   
C172     C      0.924160000000     0.924250000000     0.007170000000     0.437405   
C173     C      0.561720000000     0.918450000000     0.497760000000     0.389956   
C174     C      0.939700000000     0.545180000000     0.500840000000     0.388994   
C175     C      0.570280000000     0.543820000000     0.517210000000     0.422882   
C176     C      0.931860000000     0.916710000000     0.481330000000     0.422795   
C177     C      0.739760000000     0.743120000000     0.884490000000     0.475111   
C178     C      0.737520000000     0.740440000000     0.125160000000     0.46628    
C179     C      0.797630000000     0.682830000000     0.004750000000     0.442985   
C180     C      0.680040000000     0.803870000000     0.005130000000     0.442367   
C181     C      0.744030000000     0.727340000000     0.384180000000     0.477674   
C182     C      0.752290000000     0.738190000000     0.624310000000     0.464955   
C183     C      0.811050000000     0.673910000000     0.503470000000     0.438612   
C184     C      0.687070000000     0.788130000000     0.504540000000     0.479715   
C185     C      0.779170000000     0.769530000000     0.723360000000     0.033818   
C186     C      0.715370000000     0.712430000000     0.719150000000     0.000335539
C187     C      0.775100000000     0.770650000000     0.788890000000     0.0385582  
C188     C      0.710440000000     0.713930000000     0.784240000000     0.155037   
C189     C      0.700100000000     0.720440000000     0.222840000000     0.0366974  
C190     C      0.779540000000     0.748620000000     0.220730000000     0.00556678 
C191     C      0.702150000000     0.716130000000     0.288200000000     0.0456642  
C192     C      0.782370000000     0.741520000000     0.285310000000     0.157601   
C193     C      0.581980000000     0.845320000000     0.527050000000     0.0310068  
C194     C      0.636060000000     0.895440000000     0.470640000000    -0.000305011
C195     C      0.612800000000     0.811800000000     0.526120000000     0.0430576  
C196     C      0.669450000000     0.863910000000     0.476080000000     0.161658   
C197     C      0.855440000000     0.889610000000     0.455060000000     0.051564   
C198     C      0.907120000000     0.839990000000     0.496120000000     0.0200837  
C199     C      0.818160000000     0.855870000000     0.463920000000     0.0308511  
C200     C      0.871000000000     0.805500000000     0.501120000000     0.133113   
C201     C      0.877910000000     0.580020000000     0.550440000000     0.0316143  
C202     C      0.906800000000     0.608530000000     0.453610000000     0.00264647 
C203     C      0.844840000000     0.611730000000     0.550070000000     0.0501535  
C204     C      0.875110000000     0.641730000000     0.454520000000     0.161508   
C205     C      0.600030000000     0.614420000000     0.558520000000     0.0369358  
C206     C      0.647070000000     0.571700000000     0.495170000000     0.0108522  
C207     C      0.632980000000     0.652180000000     0.553500000000     0.0447098  
C208     C      0.681450000000     0.608290000000     0.495360000000     0.137797   
C209     C      0.608410000000     0.829820000000     0.972240000000     0.0362182  
C210     C      0.657960000000     0.876080000000     0.039380000000     0.00231148 
C211     C      0.577700000000     0.863620000000     0.970740000000     0.0433548  
C212     C      0.625420000000     0.908410000000     0.042130000000     0.155894   
C213     C      0.818470000000     0.855580000000     0.967200000000     0.0299941  
C214     C      0.855300000000     0.818370000000     0.048370000000    -0.000820796
C215     C      0.854870000000     0.889750000000     0.965930000000     0.0489832  
C216     C      0.891400000000     0.853310000000     0.049140000000     0.163168   
C217     C      0.820780000000     0.610550000000     0.037390000000     0.0348462  
C218     C      0.869760000000     0.658420000000     0.971450000000     0.00613695 
C219     C      0.854190000000     0.579220000000     0.039490000000     0.0409639  
C220     C      0.901520000000     0.625440000000     0.969210000000     0.158523   
C221     C      0.659580000000     0.629430000000     0.965960000000     0.041046   
C222     C      0.619550000000     0.669520000000     0.040880000000     0.000901892
C223     C      0.623070000000     0.595290000000     0.964150000000     0.060286   
C224     C      0.583510000000     0.634620000000     0.041530000000     0.170735   
Cu1      Cu     0.488550000000     0.992410000000     0.948130000000     0.872547   
Cu2      Cu     0.988590000000     0.493710000000     0.063250000000     0.885551   
Cu3      Cu     0.505180000000     0.986170000000     0.441830000000     0.859751   
Cu4      Cu     0.995550000000     0.476300000000     0.556240000000     0.858258   
Cu5      Cu     0.273130000000     0.275220000000     0.006040000000     1.11436    
Cu6      Cu     0.203730000000     0.210810000000     0.004650000000     1.1162     
Cu7      Cu     0.283050000000     0.265560000000     0.501550000000     1.16496    
Cu8      Cu     0.214790000000     0.197790000000     0.507010000000     1.13157    
Cu9      Cu     0.488550000000     0.492410000000     0.948130000000     0.873212   
Cu10     Cu     0.988590000000     0.993710000000     0.063250000000     0.884886   
Cu11     Cu     0.505180000000     0.486170000000     0.441830000000     0.860414   
Cu12     Cu     0.995550000000     0.976300000000     0.556240000000     0.857618   
Cu13     Cu     0.273130000000     0.775220000000     0.006040000000     1.11436    
Cu14     Cu     0.203730000000     0.710810000000     0.004650000000     1.11619    
Cu15     Cu     0.283050000000     0.765560000000     0.501550000000     1.16499    
Cu16     Cu     0.214790000000     0.697790000000     0.507010000000     1.1315     
Cu17     Cu     0.988550000000     0.992410000000     0.948130000000     0.872185   
Cu18     Cu     0.488580000000     0.493710000000     0.063250000000     0.885971   
Cu19     Cu     0.005170000000     0.986170000000     0.441830000000     0.860318   
Cu20     Cu     0.495550000000     0.476300000000     0.556240000000     0.858884   
Cu21     Cu     0.773130000000     0.275220000000     0.006040000000     1.11422    
Cu22     Cu     0.703740000000     0.210810000000     0.004650000000     1.1161     
Cu23     Cu     0.783050000000     0.265560000000     0.501550000000     1.16497    
Cu24     Cu     0.714790000000     0.197790000000     0.507010000000     1.13157    
Cu25     Cu     0.988550000000     0.492410000000     0.948130000000     0.872861   
Cu26     Cu     0.488580000000     0.993710000000     0.063250000000     0.885259   
Cu27     Cu     0.005170000000     0.486170000000     0.441830000000     0.861048   
Cu28     Cu     0.495550000000     0.976300000000     0.556240000000     0.858239   
Cu29     Cu     0.773130000000     0.775220000000     0.006040000000     1.11422    
Cu30     Cu     0.703740000000     0.710810000000     0.004650000000     1.11609    
Cu31     Cu     0.783050000000     0.765560000000     0.501550000000     1.16498    
Cu32     Cu     0.714790000000     0.697790000000     0.507010000000     1.13149    
H1       H      0.300080000000     0.294110000000     0.814190000000     0.0430974  
H2       H      0.306550000000     0.292240000000     0.701250000000     0.0474737  
H3       H      0.190250000000     0.189430000000     0.693320000000     0.06798    
H4       H      0.170380000000     0.204360000000     0.313050000000     0.0497412  
H5       H      0.167050000000     0.210860000000     0.199870000000     0.0508064  
H6       H      0.311480000000     0.259010000000     0.195420000000     0.0719655  
H7       H      0.101580000000     0.279050000000     0.547840000000     0.0414444  
H8       H      0.048290000000     0.336970000000     0.548930000000     0.0418802  
H9       H      0.146230000000     0.428290000000     0.448610000000     0.0651733  
H10      H      0.282850000000     0.365800000000     0.455070000000     0.102371   
H11      H      0.348820000000     0.423230000000     0.439010000000     0.0451348  
H12      H      0.441790000000     0.333610000000     0.510130000000     0.0540087  
H13      H      0.320760000000     0.111510000000     0.588950000000     0.0399608  
H14      H      0.377450000000     0.056510000000     0.589550000000     0.0472038  
H15      H      0.430110000000     0.108170000000     0.413980000000     0.0716632  
H16      H      0.127430000000     0.184120000000     0.575640000000     0.0355061  
H17      H      0.067970000000     0.117570000000     0.583490000000     0.0427195  
H18      H      0.153200000000     0.039930000000     0.472540000000     0.0582713  
H19      H      0.046610000000     0.357170000000     0.942360000000     0.0466493  
H20      H      0.099870000000     0.299230000000     0.944290000000     0.0528894  
H21      H      0.189750000000     0.382730000000     0.066280000000     0.0683158  
H22      H      0.353260000000     0.417780000000     0.933250000000     0.03915    
H23      H      0.289380000000     0.356680000000     0.935830000000     0.0366712  
H24      H      0.355860000000     0.289010000000     0.078670000000     0.0644744  
H25      H      0.346660000000     0.048590000000     0.067680000000     0.0453629  
H26      H      0.289320000000     0.103000000000     0.064730000000     0.0490973  
H27      H      0.377780000000     0.189770000000     0.944910000000     0.0695505  
H28      H      0.125760000000     0.066060000000     0.933930000000     0.0465498  
H29      H      0.190020000000     0.127230000000     0.937390000000     0.0470425  
H30      H      0.117990000000     0.199810000000     0.069100000000     0.0639241  
H31      H      0.300080000000     0.794110000000     0.814190000000     0.0430863  
H32      H      0.306550000000     0.792240000000     0.701250000000     0.0474591  
H33      H      0.190250000000     0.689430000000     0.693320000000     0.0679677  
H34      H      0.170380000000     0.704360000000     0.313050000000     0.0497265  
H35      H      0.167050000000     0.710860000000     0.199870000000     0.0507988  
H36      H      0.311480000000     0.759010000000     0.195420000000     0.0719589  
H37      H      0.101580000000     0.779050000000     0.547840000000     0.0414397  
H38      H      0.048290000000     0.836970000000     0.548930000000     0.0418787  
H39      H      0.146230000000     0.928290000000     0.448610000000     0.0651001  
H40      H      0.282850000000     0.865800000000     0.455070000000     0.102366   
H41      H      0.348820000000     0.923230000000     0.439010000000     0.0450764  
H42      H      0.441790000000     0.833600000000     0.510130000000     0.0539936  
H43      H      0.320760000000     0.611510000000     0.588950000000     0.0399315  
H44      H      0.377450000000     0.556510000000     0.589550000000     0.0471318  
H45      H      0.430110000000     0.608170000000     0.413980000000     0.0716328  
H46      H      0.127430000000     0.684120000000     0.575640000000     0.0355011  
H47      H      0.067970000000     0.617570000000     0.583490000000     0.0426995  
H48      H      0.153200000000     0.539930000000     0.472540000000     0.0581674  
H49      H      0.046610000000     0.857170000000     0.942360000000     0.0466423  
H50      H      0.099870000000     0.799230000000     0.944290000000     0.0528904  
H51      H      0.189750000000     0.882730000000     0.066280000000     0.0682864  
H52      H      0.353260000000     0.917780000000     0.933250000000     0.0390921  
H53      H      0.289380000000     0.856680000000     0.935830000000     0.0366491  
H54      H      0.355860000000     0.789010000000     0.078670000000     0.0644731  
H55      H      0.346660000000     0.548590000000     0.067680000000     0.0452673  
H56      H      0.289320000000     0.603000000000     0.064730000000     0.049055   
H57      H      0.377780000000     0.689770000000     0.944910000000     0.0695458  
H58      H      0.125760000000     0.566060000000     0.933930000000     0.0464678  
H59      H      0.190020000000     0.627230000000     0.937390000000     0.0470159  
H60      H      0.117990000000     0.699810000000     0.069100000000     0.0639232  
H61      H      0.800080000000     0.294110000000     0.814190000000     0.0430899  
H62      H      0.806550000000     0.292240000000     0.701250000000     0.0474665  
H63      H      0.690260000000     0.189430000000     0.693320000000     0.0679869  
H64      H      0.670380000000     0.204360000000     0.313050000000     0.0497271  
H65      H      0.667050000000     0.210860000000     0.199870000000     0.050797   
H66      H      0.811480000000     0.259010000000     0.195420000000     0.0719599  
H67      H      0.601580000000     0.279050000000     0.547840000000     0.0414204  
H68      H      0.548290000000     0.336970000000     0.548930000000     0.0418209  
H69      H      0.646230000000     0.428290000000     0.448610000000     0.0651569  
H70      H      0.782850000000     0.365800000000     0.455070000000     0.102371   
H71      H      0.848820000000     0.423230000000     0.439010000000     0.0451407  
H72      H      0.941790000000     0.333610000000     0.510130000000     0.0539449  
H73      H      0.820760000000     0.111510000000     0.588950000000     0.0399568  
H74      H      0.877450000000     0.056510000000     0.589550000000     0.047196   
H75      H      0.930110000000     0.108170000000     0.413980000000     0.0716282  
H76      H      0.627430000000     0.184120000000     0.575640000000     0.0354918  
H77      H      0.567970000000     0.117570000000     0.583490000000     0.0426722  
H78      H      0.653200000000     0.039930000000     0.472540000000     0.0582678  
H79      H      0.546610000000     0.357170000000     0.942360000000     0.0465953  
H80      H      0.599870000000     0.299230000000     0.944290000000     0.0528663  
H81      H      0.689750000000     0.382730000000     0.066280000000     0.0683148  
H82      H      0.853260000000     0.417780000000     0.933250000000     0.039143   
H83      H      0.789380000000     0.356680000000     0.935830000000     0.0366791  
H84      H      0.855860000000     0.289010000000     0.078670000000     0.0644507  
H85      H      0.846660000000     0.048590000000     0.067680000000     0.0453616  
H86      H      0.789320000000     0.103000000000     0.064730000000     0.0490967  
H87      H      0.877780000000     0.189770000000     0.944910000000     0.0695379  
H88      H      0.625760000000     0.066060000000     0.933930000000     0.0465381  
H89      H      0.690020000000     0.127230000000     0.937390000000     0.0470482  
H90      H      0.617990000000     0.199810000000     0.069100000000     0.063943   
H91      H      0.800080000000     0.794110000000     0.814190000000     0.0430886  
H92      H      0.806550000000     0.792240000000     0.701250000000     0.0474499  
H93      H      0.690250000000     0.689430000000     0.693320000000     0.0679708  
H94      H      0.670380000000     0.704360000000     0.313050000000     0.0497125  
H95      H      0.667050000000     0.710860000000     0.199870000000     0.0507894  
H96      H      0.811480000000     0.759010000000     0.195420000000     0.0719532  
H97      H      0.601580000000     0.779050000000     0.547840000000     0.0414158  
H98      H      0.548290000000     0.836970000000     0.548930000000     0.0418213  
H99      H      0.646230000000     0.928290000000     0.448610000000     0.0650883  
H100     H      0.782850000000     0.865800000000     0.455070000000     0.10237    
H101     H      0.848820000000     0.923230000000     0.439010000000     0.0450751  
H102     H      0.941790000000     0.833600000000     0.510130000000     0.0539431  
H103     H      0.820760000000     0.611510000000     0.588950000000     0.0399257  
H104     H      0.877460000000     0.556510000000     0.589550000000     0.047129   
H105     H      0.930110000000     0.608170000000     0.413980000000     0.0715974  
H106     H      0.627430000000     0.684120000000     0.575640000000     0.0354915  
H107     H      0.567970000000     0.617570000000     0.583490000000     0.0426525  
H108     H      0.653200000000     0.539930000000     0.472540000000     0.0581625  
H109     H      0.546610000000     0.857170000000     0.942360000000     0.0465883  
H110     H      0.599880000000     0.799230000000     0.944290000000     0.0528728  
H111     H      0.689750000000     0.882730000000     0.066280000000     0.0682854  
H112     H      0.853260000000     0.917780000000     0.933250000000     0.0390852  
H113     H      0.789380000000     0.856680000000     0.935830000000     0.0366573  
H114     H      0.855860000000     0.789010000000     0.078670000000     0.0644493  
H115     H      0.846660000000     0.548590000000     0.067680000000     0.0452661  
H116     H      0.789320000000     0.603000000000     0.064730000000     0.0490545  
H117     H      0.877780000000     0.689770000000     0.944910000000     0.0695329  
H118     H      0.625760000000     0.566060000000     0.933930000000     0.0464436  
H119     H      0.690010000000     0.627230000000     0.937390000000     0.0470274  
H120     H      0.617990000000     0.699810000000     0.069100000000     0.0639393  
N1       N      0.249540000000     0.240040000000     0.688610000000    -0.176994   
N2       N      0.241310000000     0.242450000000     0.819830000000    -0.198528   
N3       N      0.238690000000     0.237320000000     0.189350000000    -0.176473   
N4       N      0.243010000000     0.227750000000     0.319670000000    -0.195132   
N5       N      0.092990000000     0.386490000000     0.497790000000    -0.161305   
N6       N      0.156770000000     0.321110000000     0.502040000000    -0.198978   
N7       N      0.398700000000     0.381550000000     0.473750000000    -0.176657   
N8       N      0.327200000000     0.314500000000     0.487840000000    -0.245301   
N9       N      0.408500000000     0.077720000000     0.501680000000    -0.159605   
N10      N      0.343680000000     0.142880000000     0.502580000000    -0.179417   
N11      N      0.106300000000     0.076000000000     0.525430000000    -0.17556    
N12      N      0.171750000000     0.148580000000     0.519310000000    -0.256954   
N13      N      0.149040000000     0.336340000000     0.005620000000    -0.171994   
N14      N      0.085320000000     0.402350000000     0.006880000000    -0.183141   
N15      N      0.319760000000     0.320780000000     0.008070000000    -0.240217   
N16      N      0.390480000000     0.388910000000     0.007670000000    -0.20034    
N17      N      0.328970000000     0.150670000000     0.004380000000    -0.171872   
N18      N      0.393920000000     0.085840000000     0.004090000000    -0.1828     
N19      N      0.156710000000     0.165640000000     0.003940000000    -0.237566   
N20      N      0.086070000000     0.097560000000     0.003180000000    -0.198065   
N21      N      0.249540000000     0.740040000000     0.688610000000    -0.176996   
N22      N      0.241310000000     0.742450000000     0.819830000000    -0.19853    
N23      N      0.238690000000     0.737330000000     0.189350000000    -0.176478   
N24      N      0.243010000000     0.727750000000     0.319670000000    -0.195143   
N25      N      0.092990000000     0.886490000000     0.497790000000    -0.161304   
N26      N      0.156770000000     0.821110000000     0.502040000000    -0.199008   
N27      N      0.398710000000     0.881550000000     0.473750000000    -0.176695   
N28      N      0.327200000000     0.814500000000     0.487840000000    -0.2453     
N29      N      0.408500000000     0.577720000000     0.501680000000    -0.159638   
N30      N      0.343680000000     0.642880000000     0.502580000000    -0.179416   
N31      N      0.106300000000     0.576000000000     0.525430000000    -0.175597   
N32      N      0.171750000000     0.648580000000     0.519310000000    -0.256948   
N33      N      0.149040000000     0.836350000000     0.005620000000    -0.171955   
N34      N      0.085320000000     0.902350000000     0.006880000000    -0.183142   
N35      N      0.319760000000     0.820780000000     0.008070000000    -0.240219   
N36      N      0.390480000000     0.888910000000     0.007670000000    -0.200337   
N37      N      0.328970000000     0.650670000000     0.004380000000    -0.171876   
N38      N      0.393920000000     0.585840000000     0.004090000000    -0.182827   
N39      N      0.156710000000     0.665640000000     0.003940000000    -0.237566   
N40      N      0.086070000000     0.597560000000     0.003180000000    -0.198099   
N41      N      0.749540000000     0.240040000000     0.688610000000    -0.176989   
N42      N      0.741310000000     0.242450000000     0.819830000000    -0.198542   
N43      N      0.738690000000     0.237320000000     0.189350000000    -0.176469   
N44      N      0.743010000000     0.227750000000     0.319670000000    -0.195133   
N45      N      0.592990000000     0.386490000000     0.497790000000    -0.161352   
N46      N      0.656770000000     0.321110000000     0.502040000000    -0.198979   
N47      N      0.898710000000     0.381550000000     0.473750000000    -0.176707   
N48      N      0.827200000000     0.314500000000     0.487840000000    -0.245298   
N49      N      0.908500000000     0.077720000000     0.501680000000    -0.159616   
N50      N      0.843680000000     0.142880000000     0.502580000000    -0.179416   
N51      N      0.606300000000     0.076000000000     0.525430000000    -0.175572   
N52      N      0.671750000000     0.148580000000     0.519310000000    -0.256955   
N53      N      0.649040000000     0.336340000000     0.005620000000    -0.17199    
N54      N      0.585320000000     0.402350000000     0.006880000000    -0.183157   
N55      N      0.819770000000     0.320780000000     0.008070000000    -0.240159   
N56      N      0.890480000000     0.388910000000     0.007670000000    -0.200337   
N57      N      0.828970000000     0.150670000000     0.004380000000    -0.171874   
N58      N      0.893920000000     0.085840000000     0.004090000000    -0.182799   
N59      N      0.656710000000     0.165640000000     0.003940000000    -0.23748    
N60      N      0.586070000000     0.097560000000     0.003180000000    -0.198088   
N61      N      0.749540000000     0.740040000000     0.688610000000    -0.176973   
N62      N      0.741300000000     0.742450000000     0.819830000000    -0.198535   
N63      N      0.738690000000     0.737330000000     0.189350000000    -0.176474   
N64      N      0.743010000000     0.727750000000     0.319670000000    -0.195144   
N65      N      0.592990000000     0.886490000000     0.497790000000    -0.161321   
N66      N      0.656770000000     0.821110000000     0.502040000000    -0.199009   
N67      N      0.898710000000     0.881550000000     0.473750000000    -0.17671    
N68      N      0.827200000000     0.814500000000     0.487840000000    -0.245298   
N69      N      0.908500000000     0.577720000000     0.501680000000    -0.15965    
N70      N      0.843680000000     0.642880000000     0.502580000000    -0.179416   
N71      N      0.606300000000     0.576000000000     0.525430000000    -0.175608   
N72      N      0.671750000000     0.648580000000     0.519310000000    -0.256946   
N73      N      0.649040000000     0.836350000000     0.005620000000    -0.17195    
N74      N      0.585320000000     0.902350000000     0.006880000000    -0.183159   
N75      N      0.819770000000     0.820780000000     0.008070000000    -0.24016    
N76      N      0.890480000000     0.888910000000     0.007670000000    -0.200335   
N77      N      0.828970000000     0.650670000000     0.004380000000    -0.171878   
N78      N      0.893920000000     0.585840000000     0.004090000000    -0.182826   
N79      N      0.656710000000     0.665640000000     0.003940000000    -0.237476   
N80      N      0.586080000000     0.597560000000     0.003180000000    -0.198086   
O1       O      0.033020000000     0.442730000000     0.954970000000    -0.377907   
O2       O      0.444240000000     0.042370000000     0.953300000000    -0.361713   
O3       O      0.042080000000     0.040780000000     0.952860000000    -0.401861   
O4       O      0.435110000000     0.444160000000     0.955200000000    -0.413056   
O5       O      0.442940000000     0.438180000000     0.058750000000    -0.393704   
O6       O      0.034130000000     0.049150000000     0.056100000000    -0.389067   
O7       O      0.435260000000     0.034600000000     0.056450000000    -0.367999   
O8       O      0.042010000000     0.452860000000     0.057750000000    -0.353407   
O9       O      0.050590000000     0.436920000000     0.446030000000    -0.368815   
O10      O      0.460690000000     0.036340000000     0.449670000000    -0.370253   
O11      O      0.059500000000     0.031480000000     0.461310000000    -0.401422   
O12      O      0.449650000000     0.438290000000     0.433490000000    -0.391997   
O13      O      0.446050000000     0.425960000000     0.536930000000    -0.406617   
O14      O      0.046890000000     0.027860000000     0.564690000000    -0.401035   
O15      O      0.447850000000     0.023260000000     0.551210000000    -0.3758     
O16      O      0.042970000000     0.429230000000     0.549610000000    -0.376251   
O17      O      0.265150000000     0.273290000000     0.915250000000    -0.458018   
O18      O      0.271720000000     0.260760000000     0.095210000000    -0.455251   
O19      O      0.311180000000     0.224780000000     0.993740000000    -0.432604   
O20      O      0.222880000000     0.314820000000     0.017560000000    -0.439778   
O21      O      0.166410000000     0.262170000000     0.992520000000    -0.429462   
O22      O      0.254620000000     0.171380000000     0.016110000000    -0.435092   
O23      O      0.203080000000     0.221590000000     0.094540000000    -0.455489   
O24      O      0.214170000000     0.212930000000     0.914770000000    -0.440993   
O25      O      0.276240000000     0.251750000000     0.413040000000    -0.442809   
O26      O      0.280670000000     0.265920000000     0.593380000000    -0.442011   
O27      O      0.323230000000     0.216980000000     0.510220000000    -0.389255   
O28      O      0.230390000000     0.299730000000     0.503020000000    -0.462208   
O29      O      0.172570000000     0.245710000000     0.507720000000    -0.444829   
O30      O      0.267500000000     0.160590000000     0.496780000000    -0.387685   
O31      O      0.225030000000     0.208810000000     0.594880000000    -0.473363   
O32      O      0.212070000000     0.204530000000     0.415840000000    -0.439777   
O33      O      0.033020000000     0.942730000000     0.954970000000    -0.377877   
O34      O      0.444240000000     0.542370000000     0.953300000000    -0.362046   
O35      O      0.042080000000     0.540780000000     0.952860000000    -0.402192   
O36      O      0.435110000000     0.944160000000     0.955200000000    -0.413018   
O37      O      0.442940000000     0.938180000000     0.058750000000    -0.393646   
O38      O      0.034130000000     0.549150000000     0.056100000000    -0.38939    
O39      O      0.435260000000     0.534600000000     0.056450000000    -0.368358   
O40      O      0.042010000000     0.952860000000     0.057750000000    -0.353377   
O41      O      0.050590000000     0.936920000000     0.446030000000    -0.368789   
O42      O      0.460690000000     0.536340000000     0.449670000000    -0.370553   
O43      O      0.059500000000     0.531480000000     0.461310000000    -0.401762   
O44      O      0.449650000000     0.938290000000     0.433490000000    -0.39198    
O45      O      0.446050000000     0.925960000000     0.536930000000    -0.406589   
O46      O      0.046890000000     0.527860000000     0.564690000000    -0.401359   
O47      O      0.447850000000     0.523260000000     0.551210000000    -0.376113   
O48      O      0.042970000000     0.929230000000     0.549610000000    -0.376229   
O49      O      0.265150000000     0.773290000000     0.915250000000    -0.458021   
O50      O      0.271720000000     0.760760000000     0.095210000000    -0.455254   
O51      O      0.311180000000     0.724780000000     0.993740000000    -0.432602   
O52      O      0.222880000000     0.814820000000     0.017560000000    -0.43977    
O53      O      0.166410000000     0.762170000000     0.992520000000    -0.429445   
O54      O      0.254620000000     0.671380000000     0.016110000000    -0.435109   
O55      O      0.203080000000     0.721590000000     0.094540000000    -0.455498   
O56      O      0.214170000000     0.712930000000     0.914770000000    -0.440994   
O57      O      0.276240000000     0.751750000000     0.413040000000    -0.442809   
O58      O      0.280670000000     0.765920000000     0.593380000000    -0.44202    
O59      O      0.323230000000     0.716980000000     0.510220000000    -0.389253   
O60      O      0.230390000000     0.799730000000     0.503020000000    -0.462261   
O61      O      0.172570000000     0.745720000000     0.507720000000    -0.444889   
O62      O      0.267500000000     0.660590000000     0.496780000000    -0.387667   
O63      O      0.225030000000     0.708810000000     0.594880000000    -0.47336    
O64      O      0.212070000000     0.704530000000     0.415840000000    -0.439777   
O65      O      0.533020000000     0.442730000000     0.954970000000    -0.378076   
O66      O      0.944240000000     0.042370000000     0.953300000000    -0.361688   
O67      O      0.542080000000     0.040780000000     0.952860000000    -0.402035   
O68      O      0.935110000000     0.444160000000     0.955200000000    -0.413022   
O69      O      0.942940000000     0.438180000000     0.058750000000    -0.393631   
O70      O      0.534130000000     0.049150000000     0.056100000000    -0.389204   
O71      O      0.935260000000     0.034600000000     0.056450000000    -0.367936   
O72      O      0.542010000000     0.452860000000     0.057750000000    -0.353533   
O73      O      0.550590000000     0.436920000000     0.446030000000    -0.368818   
O74      O      0.960690000000     0.036340000000     0.449670000000    -0.370449   
O75      O      0.559500000000     0.031480000000     0.461310000000    -0.401457   
O76      O      0.949650000000     0.438290000000     0.433490000000    -0.392226   
O77      O      0.946050000000     0.425960000000     0.536930000000    -0.406616   
O78      O      0.546890000000     0.027860000000     0.564690000000    -0.401225   
O79      O      0.947850000000     0.023260000000     0.551210000000    -0.37579    
O80      O      0.542970000000     0.429230000000     0.549610000000    -0.376384   
O81      O      0.765150000000     0.273290000000     0.915250000000    -0.458004   
O82      O      0.771720000000     0.260760000000     0.095210000000    -0.455235   
O83      O      0.811180000000     0.224780000000     0.993740000000    -0.4326     
O84      O      0.722880000000     0.314820000000     0.017560000000    -0.439755   
O85      O      0.666410000000     0.262170000000     0.992520000000    -0.42939    
O86      O      0.754620000000     0.171380000000     0.016110000000    -0.435135   
O87      O      0.703080000000     0.221590000000     0.094540000000    -0.455462   
O88      O      0.714170000000     0.212930000000     0.914770000000    -0.440985   
O89      O      0.776240000000     0.251750000000     0.413040000000    -0.442809   
O90      O      0.780670000000     0.265920000000     0.593380000000    -0.442013   
O91      O      0.823230000000     0.216980000000     0.510220000000    -0.38925    
O92      O      0.730390000000     0.299730000000     0.503020000000    -0.462209   
O93      O      0.672570000000     0.245710000000     0.507720000000    -0.444836   
O94      O      0.767500000000     0.160590000000     0.496780000000    -0.387682   
O95      O      0.725030000000     0.208810000000     0.594880000000    -0.473364   
O96      O      0.712070000000     0.204530000000     0.415840000000    -0.439782   
O97      O      0.533020000000     0.942730000000     0.954970000000    -0.378045   
O98      O      0.944240000000     0.542370000000     0.953300000000    -0.362024   
O99      O      0.542080000000     0.540780000000     0.952860000000    -0.402335   
O100     O      0.935110000000     0.944160000000     0.955200000000    -0.412984   
O101     O      0.942940000000     0.938180000000     0.058750000000    -0.393581   
O102     O      0.534120000000     0.549150000000     0.056100000000    -0.389512   
O103     O      0.935260000000     0.534600000000     0.056450000000    -0.368296   
O104     O      0.542010000000     0.952860000000     0.057750000000    -0.353493   
O105     O      0.550590000000     0.936920000000     0.446030000000    -0.368828   
O106     O      0.960690000000     0.536340000000     0.449670000000    -0.37076    
O107     O      0.559500000000     0.531480000000     0.461310000000    -0.401788   
O108     O      0.949640000000     0.938290000000     0.433490000000    -0.392179   
O109     O      0.946050000000     0.925960000000     0.536930000000    -0.406585   
O110     O      0.546890000000     0.527860000000     0.564690000000    -0.40155    
O111     O      0.947850000000     0.523260000000     0.551210000000    -0.376106   
O112     O      0.542970000000     0.929230000000     0.549610000000    -0.376405   
O113     O      0.765150000000     0.773290000000     0.915250000000    -0.458008   
O114     O      0.771720000000     0.760760000000     0.095210000000    -0.455237   
O115     O      0.811180000000     0.724780000000     0.993740000000    -0.432599   
O116     O      0.722880000000     0.814820000000     0.017560000000    -0.439747   
O117     O      0.666410000000     0.762170000000     0.992520000000    -0.429373   
O118     O      0.754620000000     0.671380000000     0.016110000000    -0.435151   
O119     O      0.703080000000     0.721590000000     0.094540000000    -0.45547    
O120     O      0.714170000000     0.712930000000     0.914770000000    -0.440983   
O121     O      0.776240000000     0.751750000000     0.413040000000    -0.442806   
O122     O      0.780670000000     0.765920000000     0.593380000000    -0.441993   
O123     O      0.823230000000     0.716980000000     0.510220000000    -0.389249   
O124     O      0.730390000000     0.799730000000     0.503020000000    -0.462258   
O125     O      0.672570000000     0.745720000000     0.507720000000    -0.444888   
O126     O      0.767500000000     0.660590000000     0.496780000000    -0.387668   
O127     O      0.725020000000     0.708810000000     0.594880000000    -0.473287   
O128     O      0.712070000000     0.704530000000     0.415840000000    -0.439779   


