data_structure

_audit_creation_method RASPA-1.0
_audit_creation_date 2023-6-4
_audit_author_name 'Poobodin Mano'

_cell_length_a    29.2378
_cell_length_b    29.4043
_cell_length_c    21.4408
_cell_angle_alpha 89.9989
_cell_angle_beta  89.9989
_cell_angle_gamma 96.735
_cell_volume      18305.8

_symmetry_cell_setting          triclinic
_symmetry_space_group_name_Hall 'P 1'
_symmetry_space_group_name_H-M  'P 1'
_symmetry_Int_Tables_number     1

_symmetry_equiv_pos_as_xyz 'x,y,z'

loop_
_atom_site_label
_atom_site_type_symbol
_atom_site_fract_x
_atom_site_fract_y
_atom_site_fract_z
_atom_site_charge
C1       C      0.057280000000     0.426130000000     0.000680000000     0.381955   
C2       C      0.432820000000     0.049420000000     0.007610000000     0.386228   
C3       C      0.063140000000     0.053600000000     0.005280000000     0.419948   
C4       C      0.426660000000     0.423760000000     0.001130000000     0.421343   
C5       C      0.046350000000     0.426410000000     0.511110000000     0.3852     
C6       C      0.425980000000     0.054380000000     0.506470000000     0.38423    
C7       C      0.054920000000     0.055330000000     0.502840000000     0.422007   
C8       C      0.415900000000     0.428280000000     0.516800000000     0.431027   
C9       C      0.244810000000     0.232340000000     0.884970000000     0.469465   
C10      C      0.243480000000     0.240370000000     0.124680000000     0.46063    
C11      C      0.304730000000     0.177910000000     0.010820000000     0.517874   
C12      C      0.186130000000     0.298370000000     0.999950000000     0.449126   
C13      C      0.240720000000     0.248440000000     0.384810000000     0.464526   
C14      C      0.237870000000     0.238270000000     0.625710000000     0.542996   
C15      C      0.297760000000     0.182600000000     0.501330000000     0.446318   
C16      C      0.174610000000     0.297890000000     0.510070000000     0.444361   
C17      C      0.261040000000     0.270350000000     0.723840000000     0.0279655  
C18      C      0.219820000000     0.196840000000     0.721290000000    -0.0140689  
C19      C      0.264140000000     0.267910000000     0.788560000000     0.0307398  
C20      C      0.222920000000     0.193710000000     0.786970000000     0.14566    
C21      C      0.213550000000     0.214710000000     0.223380000000     0.0266394  
C22      C      0.272910000000     0.275710000000     0.219190000000    -0.0120619  
C23      C      0.212910000000     0.218050000000     0.288190000000     0.0306317  
C24      C      0.271660000000     0.280590000000     0.284830000000     0.145273   
C25      C      0.078600000000     0.362350000000     0.465490000000     0.0227724  
C26      C      0.108890000000     0.393230000000     0.559700000000    -0.014449   
C27      C      0.109530000000     0.328810000000     0.467540000000     0.0340744  
C28      C      0.142180000000     0.361470000000     0.560290000000     0.145796   
C29      C      0.349570000000     0.322930000000     0.556010000000     0.0268302  
C30      C      0.309200000000     0.360080000000     0.478970000000    -0.0182475  
C31      C      0.381740000000     0.360810000000     0.560290000000     0.0414433  
C32      C      0.342000000000     0.397930000000     0.481190000000     0.155943   
C33      C      0.391330000000     0.117020000000     0.551990000000     0.0230927  
C34      C      0.365190000000     0.087980000000     0.454760000000    -0.0152036  
C35      C      0.360500000000     0.150560000000     0.548400000000     0.0346708  
C36      C      0.331980000000     0.119700000000     0.452400000000     0.147072   
C37      C      0.111700000000     0.101550000000     0.445870000000     0.0265427  
C38      C      0.102430000000     0.112950000000     0.554750000000    -0.0163533  
C39      C      0.147360000000     0.136760000000     0.445060000000     0.04079    
C40      C      0.137940000000     0.148030000000     0.553690000000     0.156331   
C41      C      0.089810000000     0.361980000000     0.044800000000     0.0212084  
C42      C      0.121460000000     0.395190000000     0.952640000000    -0.0153703  
C43      C      0.121150000000     0.328990000000     0.042500000000     0.0326756  
C44      C      0.155110000000     0.363770000000     0.951790000000     0.145052   
C45      C      0.358850000000     0.318880000000     0.959150000000     0.0260802  
C46      C      0.321160000000     0.352930000000     0.041700000000    -0.0166482  
C47      C      0.391930000000     0.356180000000     0.957400000000     0.0389853  
C48      C      0.354020000000     0.390920000000     0.040470000000     0.151615   
C49      C      0.377940000000     0.153960000000     0.039050000000     0.0293866  
C50      C      0.324650000000     0.103130000000     0.984150000000    -0.0112284  
C51      C      0.409060000000     0.120550000000     0.040330000000     0.0276875  
C52      C      0.356820000000     0.070320000000     0.981540000000     0.139937   
C53      C      0.089310000000     0.128480000000     0.978650000000     0.0300229  
C54      C      0.139020000000     0.081510000000     0.029870000000    -0.0141206  
C55      C      0.123390000000     0.164830000000     0.980440000000     0.0404294  
C56      C      0.174630000000     0.116860000000     0.025420000000     0.153843   
C57      C      0.057280000000     0.926130000000     0.000680000000     0.381887   
C58      C      0.432820000000     0.549420000000     0.007610000000     0.386288   
C59      C      0.063140000000     0.553600000000     0.005280000000     0.420088   
C60      C      0.426660000000     0.923760000000     0.001130000000     0.421266   
C61      C      0.046350000000     0.926410000000     0.511110000000     0.385158   
C62      C      0.425980000000     0.554380000000     0.506470000000     0.384323   
C63      C      0.054920000000     0.555330000000     0.502840000000     0.422066   
C64      C      0.415900000000     0.928280000000     0.516800000000     0.430985   
C65      C      0.244810000000     0.732340000000     0.884970000000     0.469439   
C66      C      0.243480000000     0.740370000000     0.124680000000     0.46065    
C67      C      0.304730000000     0.677910000000     0.010820000000     0.517899   
C68      C      0.186130000000     0.798370000000     0.999950000000     0.449129   
C69      C      0.240720000000     0.748440000000     0.384820000000     0.464663   
C70      C      0.237870000000     0.738270000000     0.625720000000     0.542897   
C71      C      0.297760000000     0.682600000000     0.501340000000     0.446388   
C72      C      0.174610000000     0.797900000000     0.510070000000     0.444287   
C73      C      0.261040000000     0.770350000000     0.723840000000     0.0279882  
C74      C      0.219820000000     0.696840000000     0.721290000000    -0.0140627  
C75      C      0.264140000000     0.767910000000     0.788570000000     0.0307018  
C76      C      0.222920000000     0.693700000000     0.786980000000     0.145716   
C77      C      0.213550000000     0.714710000000     0.223380000000     0.0266328  
C78      C      0.272910000000     0.775710000000     0.219200000000    -0.0120812  
C79      C      0.212910000000     0.718050000000     0.288200000000     0.0306331  
C80      C      0.271660000000     0.780590000000     0.284840000000     0.145293   
C81      C      0.078600000000     0.862350000000     0.465500000000     0.0228069  
C82      C      0.108890000000     0.893240000000     0.559700000000    -0.0144404  
C83      C      0.109530000000     0.828810000000     0.467540000000     0.0340339  
C84      C      0.142180000000     0.861480000000     0.560290000000     0.145705   
C85      C      0.349570000000     0.822930000000     0.556010000000     0.0268727  
C86      C      0.309200000000     0.860080000000     0.478970000000    -0.0182794  
C87      C      0.381740000000     0.860810000000     0.560290000000     0.0414072  
C88      C      0.342000000000     0.897930000000     0.481190000000     0.155918   
C89      C      0.391330000000     0.617020000000     0.551990000000     0.0230596  
C90      C      0.365190000000     0.587980000000     0.454760000000    -0.0152498  
C91      C      0.360500000000     0.650560000000     0.548400000000     0.0346878  
C92      C      0.331980000000     0.619700000000     0.452400000000     0.147019   
C93      C      0.111700000000     0.601550000000     0.445880000000     0.0265593  
C94      C      0.102430000000     0.612950000000     0.554760000000    -0.0164305  
C95      C      0.147360000000     0.636760000000     0.445060000000     0.0407022  
C96      C      0.137940000000     0.648020000000     0.553690000000     0.156368   
C97      C      0.089810000000     0.861980000000     0.044810000000     0.021163   
C98      C      0.121460000000     0.895190000000     0.952640000000    -0.0154003  
C99      C      0.121150000000     0.828990000000     0.042510000000     0.032658   
C100     C      0.155110000000     0.863770000000     0.951790000000     0.145039   
C101     C      0.358850000000     0.818880000000     0.959160000000     0.0261478  
C102     C      0.321160000000     0.852930000000     0.041710000000    -0.0166838  
C103     C      0.391940000000     0.856180000000     0.957400000000     0.0389133  
C104     C      0.354020000000     0.890920000000     0.040470000000     0.15158    
C105     C      0.377930000000     0.653960000000     0.039060000000     0.0294157  
C106     C      0.324650000000     0.603130000000     0.984150000000    -0.0112299  
C107     C      0.409060000000     0.620550000000     0.040330000000     0.0276567  
C108     C      0.356820000000     0.570320000000     0.981540000000     0.139872   
C109     C      0.089310000000     0.628480000000     0.978660000000     0.030001   
C110     C      0.139020000000     0.581510000000     0.029870000000    -0.0141013  
C111     C      0.123390000000     0.664830000000     0.980440000000     0.0404199  
C112     C      0.174630000000     0.616860000000     0.025420000000     0.153797   
C113     C      0.557280000000     0.426130000000     0.000680000000     0.382074   
C114     C      0.932820000000     0.049420000000     0.007610000000     0.386165   
C115     C      0.563140000000     0.053600000000     0.005280000000     0.420034   
C116     C      0.926660000000     0.423760000000     0.001130000000     0.421277   
C117     C      0.546350000000     0.426410000000     0.511110000000     0.385267   
C118     C      0.925980000000     0.054380000000     0.506470000000     0.384155   
C119     C      0.554920000000     0.055330000000     0.502840000000     0.422072   
C120     C      0.915900000000     0.428280000000     0.516800000000     0.430985   
C121     C      0.744810000000     0.232340000000     0.884970000000     0.469463   
C122     C      0.743480000000     0.240370000000     0.124680000000     0.46063    
C123     C      0.804730000000     0.177910000000     0.010820000000     0.517873   
C124     C      0.686130000000     0.298370000000     0.999950000000     0.449123   
C125     C      0.740720000000     0.248440000000     0.384810000000     0.464524   
C126     C      0.737870000000     0.238270000000     0.625710000000     0.542991   
C127     C      0.797760000000     0.182600000000     0.501330000000     0.446314   
C128     C      0.674610000000     0.297890000000     0.510070000000     0.444355   
C129     C      0.761040000000     0.270350000000     0.723840000000     0.0279573  
C130     C      0.719820000000     0.196840000000     0.721290000000    -0.0140773  
C131     C      0.764140000000     0.267910000000     0.788560000000     0.0307311  
C132     C      0.722920000000     0.193710000000     0.786970000000     0.145646   
C133     C      0.713550000000     0.214710000000     0.223380000000     0.026631   
C134     C      0.772910000000     0.275710000000     0.219190000000    -0.0120671  
C135     C      0.712910000000     0.218050000000     0.288190000000     0.030622   
C136     C      0.771660000000     0.280590000000     0.284830000000     0.145259   
C137     C      0.578600000000     0.362350000000     0.465490000000     0.022743   
C138     C      0.608890000000     0.393230000000     0.559700000000    -0.014468   
C139     C      0.609530000000     0.328810000000     0.467540000000     0.0340439  
C140     C      0.642180000000     0.361470000000     0.560290000000     0.145775   
C141     C      0.849570000000     0.322930000000     0.556010000000     0.0268396  
C142     C      0.809200000000     0.360080000000     0.478970000000    -0.0182511  
C143     C      0.881750000000     0.360810000000     0.560290000000     0.0413887  
C144     C      0.842000000000     0.397930000000     0.481190000000     0.155937   
C145     C      0.891330000000     0.117020000000     0.551990000000     0.0230651  
C146     C      0.865190000000     0.087980000000     0.454760000000    -0.0152223  
C147     C      0.860500000000     0.150560000000     0.548400000000     0.0346518  
C148     C      0.831980000000     0.119700000000     0.452400000000     0.14706    
C149     C      0.611700000000     0.101550000000     0.445870000000     0.026514   
C150     C      0.602430000000     0.112950000000     0.554750000000    -0.016372   
C151     C      0.647350000000     0.136760000000     0.445060000000     0.0407768  
C152     C      0.637940000000     0.148030000000     0.553690000000     0.156305   
C153     C      0.589810000000     0.361980000000     0.044800000000     0.0211862  
C154     C      0.621460000000     0.395190000000     0.952640000000    -0.0154001  
C155     C      0.621150000000     0.328990000000     0.042500000000     0.0326437  
C156     C      0.655100000000     0.363770000000     0.951790000000     0.14501    
C157     C      0.858840000000     0.318880000000     0.959150000000     0.0261008  
C158     C      0.821160000000     0.352930000000     0.041700000000    -0.0166039  
C159     C      0.891940000000     0.356180000000     0.957400000000     0.0389261  
C160     C      0.854020000000     0.390920000000     0.040470000000     0.151579   
C161     C      0.877940000000     0.153960000000     0.039050000000     0.0293655  
C162     C      0.824650000000     0.103130000000     0.984150000000    -0.0112351  
C163     C      0.909060000000     0.120550000000     0.040330000000     0.0276582  
C164     C      0.856820000000     0.070320000000     0.981540000000     0.139924   
C165     C      0.589310000000     0.128480000000     0.978650000000     0.0299983  
C166     C      0.639020000000     0.081510000000     0.029870000000    -0.0141299  
C167     C      0.623390000000     0.164830000000     0.980440000000     0.0404041  
C168     C      0.674630000000     0.116860000000     0.025420000000     0.153833   
C169     C      0.557280000000     0.926130000000     0.000680000000     0.381952   
C170     C      0.932820000000     0.549420000000     0.007610000000     0.386226   
C171     C      0.563140000000     0.553600000000     0.005280000000     0.420169   
C172     C      0.926670000000     0.923760000000     0.001130000000     0.421246   
C173     C      0.546350000000     0.926410000000     0.511110000000     0.385285   
C174     C      0.925980000000     0.554380000000     0.506470000000     0.384254   
C175     C      0.554920000000     0.555330000000     0.502840000000     0.422152   
C176     C      0.915900000000     0.928280000000     0.516800000000     0.430883   
C177     C      0.744810000000     0.732340000000     0.884970000000     0.469589   
C178     C      0.743480000000     0.740370000000     0.124680000000     0.460649   
C179     C      0.804730000000     0.677910000000     0.010820000000     0.517897   
C180     C      0.686130000000     0.798370000000     0.999950000000     0.449285   
C181     C      0.740720000000     0.748440000000     0.384820000000     0.464658   
C182     C      0.737870000000     0.738270000000     0.625720000000     0.54289    
C183     C      0.797760000000     0.682600000000     0.501340000000     0.446384   
C184     C      0.674610000000     0.797900000000     0.510070000000     0.444279   
C185     C      0.761040000000     0.770350000000     0.723840000000     0.0279666  
C186     C      0.719820000000     0.696840000000     0.721290000000    -0.0140723  
C187     C      0.764140000000     0.767910000000     0.788570000000     0.0307206  
C188     C      0.722920000000     0.693700000000     0.786980000000     0.145699   
C189     C      0.713550000000     0.714710000000     0.223380000000     0.0266258  
C190     C      0.772910000000     0.775710000000     0.219200000000    -0.0120751  
C191     C      0.712910000000     0.718050000000     0.288200000000     0.0306221  
C192     C      0.771660000000     0.780590000000     0.284840000000     0.14525    
C193     C      0.578600000000     0.862350000000     0.465500000000     0.0227894  
C194     C      0.608890000000     0.893240000000     0.559700000000    -0.0144737  
C195     C      0.609530000000     0.828810000000     0.467540000000     0.0339975  
C196     C      0.642180000000     0.861480000000     0.560290000000     0.145694   
C197     C      0.849570000000     0.822930000000     0.556010000000     0.0268591  
C198     C      0.809200000000     0.860080000000     0.478970000000    -0.0182746  
C199     C      0.881740000000     0.860810000000     0.560290000000     0.0413843  
C200     C      0.842000000000     0.897930000000     0.481190000000     0.15589    
C201     C      0.891330000000     0.617020000000     0.551990000000     0.0230332  
C202     C      0.865190000000     0.587980000000     0.454760000000    -0.0152682  
C203     C      0.860500000000     0.650560000000     0.548400000000     0.0346688  
C204     C      0.831980000000     0.619700000000     0.452400000000     0.147008   
C205     C      0.611700000000     0.601550000000     0.445880000000     0.0265412  
C206     C      0.602430000000     0.612950000000     0.554760000000    -0.016447   
C207     C      0.647360000000     0.636760000000     0.445060000000     0.0406833  
C208     C      0.637940000000     0.648020000000     0.553690000000     0.156341   
C209     C      0.589810000000     0.861980000000     0.044810000000     0.0211173  
C210     C      0.621460000000     0.895190000000     0.952640000000    -0.0154234  
C211     C      0.621160000000     0.828990000000     0.042510000000     0.0326774  
C212     C      0.655110000000     0.863770000000     0.951790000000     0.14503    
C213     C      0.858850000000     0.818880000000     0.959160000000     0.02612    
C214     C      0.821160000000     0.852930000000     0.041710000000    -0.0166952  
C215     C      0.891930000000     0.856180000000     0.957400000000     0.0389002  
C216     C      0.854020000000     0.890920000000     0.040470000000     0.151565   
C217     C      0.877930000000     0.653960000000     0.039060000000     0.0293945  
C218     C      0.824650000000     0.603130000000     0.984150000000    -0.0112357  
C219     C      0.909060000000     0.620550000000     0.040330000000     0.0276278  
C220     C      0.856820000000     0.570320000000     0.981540000000     0.139859   
C221     C      0.589310000000     0.628480000000     0.978660000000     0.0299704  
C222     C      0.639030000000     0.581510000000     0.029870000000    -0.0141975  
C223     C      0.623390000000     0.664830000000     0.980440000000     0.0403996  
C224     C      0.674630000000     0.616860000000     0.025420000000     0.153831   
Cu1      Cu     0.494980000000     0.989530000000     0.946530000000     0.847173   
Cu2      Cu     0.996020000000     0.486940000000     0.061060000000     0.837246   
Cu3      Cu     0.484560000000     0.988050000000     0.451690000000     0.845645   
Cu4      Cu     0.987900000000     0.493030000000     0.566660000000     0.855716   
Cu5      Cu     0.279630000000     0.270700000000     0.001930000000     1.10619    
Cu6      Cu     0.210260000000     0.205440000000     0.007300000000     1.16391    
Cu7      Cu     0.271050000000     0.275090000000     0.511030000000     1.12207    
Cu8      Cu     0.204190000000     0.207980000000     0.499210000000     1.13993    
Cu9      Cu     0.494980000000     0.489530000000     0.946530000000     0.84787    
Cu10     Cu     0.996020000000     0.986940000000     0.061060000000     0.836579   
Cu11     Cu     0.484560000000     0.488050000000     0.451690000000     0.846312   
Cu12     Cu     0.987910000000     0.993030000000     0.566660000000     0.855015   
Cu13     Cu     0.279630000000     0.770700000000     0.001930000000     1.10619    
Cu14     Cu     0.210260000000     0.705440000000     0.007310000000     1.16393    
Cu15     Cu     0.271050000000     0.775090000000     0.511030000000     1.12216    
Cu16     Cu     0.204190000000     0.707970000000     0.499210000000     1.14001    
Cu17     Cu     0.994980000000     0.989530000000     0.946530000000     0.846462   
Cu18     Cu     0.496020000000     0.486940000000     0.061060000000     0.837918   
Cu19     Cu     0.984560000000     0.988050000000     0.451690000000     0.845003   
Cu20     Cu     0.487900000000     0.493030000000     0.566660000000     0.856433   
Cu21     Cu     0.779630000000     0.270700000000     0.001930000000     1.10626    
Cu22     Cu     0.710260000000     0.205440000000     0.007300000000     1.16389    
Cu23     Cu     0.771050000000     0.275090000000     0.511030000000     1.12207    
Cu24     Cu     0.704190000000     0.207980000000     0.499210000000     1.13993    
Cu25     Cu     0.994980000000     0.489530000000     0.946530000000     0.847145   
Cu26     Cu     0.496020000000     0.986940000000     0.061060000000     0.837302   
Cu27     Cu     0.984560000000     0.488050000000     0.451690000000     0.84553    
Cu28     Cu     0.487900000000     0.993030000000     0.566660000000     0.855688   
Cu29     Cu     0.779630000000     0.770700000000     0.001930000000     1.10614    
Cu30     Cu     0.710260000000     0.705440000000     0.007310000000     1.16398    
Cu31     Cu     0.771050000000     0.775090000000     0.511030000000     1.12216    
Cu32     Cu     0.704190000000     0.707970000000     0.499210000000     1.14001    
H1       H      0.281510000000     0.297550000000     0.812540000000     0.0339161  
H2       H      0.276790000000     0.301430000000     0.701530000000     0.0358391  
H3       H      0.206680000000     0.166370000000     0.695990000000     0.034467   
H4       H      0.216850000000     0.144210000000     0.859730000000     0.10564    
H5       H      0.192830000000     0.125230000000     0.787740000000     0.087294   
H6       H      0.188470000000     0.193470000000     0.312070000000     0.036296   
H7       H      0.189530000000     0.188530000000     0.201620000000     0.0399475  
H8       H      0.296560000000     0.299620000000     0.192820000000     0.0483869  
H9       H      0.294220000000     0.329550000000     0.354710000000     0.10852    
H10      H      0.320690000000     0.338740000000     0.282160000000     0.0890136  
H11      H      0.108170000000     0.304060000000     0.429860000000     0.0350433  
H12      H      0.054420000000     0.361240000000     0.427030000000     0.038895   
H13      H      0.109120000000     0.417690000000     0.597630000000     0.0481258  
H14      H      0.193080000000     0.337080000000     0.617920000000     0.106007   
H15      H      0.170280000000     0.386300000000     0.645570000000     0.0888586  
H16      H      0.410560000000     0.359650000000     0.591980000000     0.0329184  
H17      H      0.352440000000     0.293360000000     0.585090000000     0.0365361  
H18      H      0.278800000000     0.360080000000     0.450240000000     0.0358546  
H19      H      0.355460000000     0.467290000000     0.452870000000     0.103891   
H20      H      0.306410000000     0.436030000000     0.418580000000     0.0883678  
H21      H      0.360180000000     0.174620000000     0.586730000000     0.0334667  
H22      H      0.413830000000     0.117370000000     0.592220000000     0.0380767  
H23      H      0.366620000000     0.064230000000     0.416250000000     0.0454907  
H24      H      0.283620000000     0.145120000000     0.391550000000     0.106436   
H25      H      0.307600000000     0.096400000000     0.364550000000     0.0890594  
H26      H      0.165340000000     0.145680000000     0.402050000000     0.0255973  
H27      H      0.102510000000     0.083630000000     0.402640000000     0.0382886  
H28      H      0.085540000000     0.104480000000     0.599040000000     0.0514021  
H29      H      0.182400000000     0.192960000000     0.601300000000     0.337728   
H30      H      0.135810000000     0.164210000000     0.649450000000     0.104052   
H31      H      0.119250000000     0.303450000000     0.079230000000     0.0348091  
H32      H      0.064930000000     0.359710000000     0.082510000000     0.0391386  
H33      H      0.122030000000     0.420440000000     0.915660000000     0.0470721  
H34      H      0.207090000000     0.341010000000     0.894410000000     0.105709   
H35      H      0.184330000000     0.390600000000     0.868170000000     0.0874796  
H36      H      0.420020000000     0.355660000000     0.924380000000     0.0348725  
H37      H      0.360490000000     0.290610000000     0.927300000000     0.0335852  
H38      H      0.291760000000     0.351920000000     0.072540000000     0.0418553  
H39      H      0.365780000000     0.460200000000     0.070220000000     0.103025   
H40      H      0.318860000000     0.426950000000     0.106080000000     0.0882209  
H41      H      0.441990000000     0.129230000000     0.063280000000     0.0337303  
H42      H      0.388060000000     0.186520000000     0.061810000000     0.0349321  
H43      H      0.291670000000     0.095070000000     0.961140000000     0.0347972  
H44      H      0.362850000000     0.001750000000     0.955160000000     0.102869   
H45      H      0.310750000000     0.022430000000     0.933560000000     0.0877241  
H46      H      0.117410000000     0.197600000000     0.961230000000     0.028653   
H47      H      0.056170000000     0.133340000000     0.958450000000     0.0342685  
H48      H      0.145670000000     0.048300000000     0.047570000000     0.043704   
H49      H      0.242760000000     0.138840000000     0.023870000000     0.327809   
H50      H      0.229380000000     0.079190000000     0.050340000000     0.103098   
H51      H      0.281510000000     0.797550000000     0.812540000000     0.0339059  
H52      H      0.276790000000     0.801430000000     0.701530000000     0.0358166  
H53      H      0.206680000000     0.666370000000     0.695990000000     0.0344399  
H54      H      0.216850000000     0.644210000000     0.859730000000     0.10562    
H55      H      0.192830000000     0.625230000000     0.787740000000     0.0872506  
H56      H      0.188470000000     0.693470000000     0.312070000000     0.0362798  
H57      H      0.189530000000     0.688530000000     0.201630000000     0.0399279  
H58      H      0.296560000000     0.799620000000     0.192820000000     0.0483851  
H59      H      0.294220000000     0.829550000000     0.354710000000     0.108511   
H60      H      0.320690000000     0.838740000000     0.282160000000     0.0889962  
H61      H      0.108170000000     0.804060000000     0.429870000000     0.0350439  
H62      H      0.054420000000     0.861240000000     0.427030000000     0.0388699  
H63      H      0.109120000000     0.917700000000     0.597630000000     0.0480672  
H64      H      0.193080000000     0.837080000000     0.617920000000     0.106006   
H65      H      0.170280000000     0.886300000000     0.645570000000     0.088841   
H66      H      0.410560000000     0.859650000000     0.591980000000     0.0329159  
H67      H      0.352440000000     0.793360000000     0.585090000000     0.0365186  
H68      H      0.278800000000     0.860080000000     0.450240000000     0.0358433  
H69      H      0.355460000000     0.967290000000     0.452870000000     0.103775   
H70      H      0.306410000000     0.936030000000     0.418580000000     0.088293   
H71      H      0.360180000000     0.674620000000     0.586730000000     0.0334462  
H72      H      0.413830000000     0.617370000000     0.592220000000     0.0380515  
H73      H      0.366620000000     0.564240000000     0.416260000000     0.0454282  
H74      H      0.283620000000     0.645120000000     0.391560000000     0.106424   
H75      H      0.307600000000     0.596400000000     0.364550000000     0.0889996  
H76      H      0.165340000000     0.645680000000     0.402050000000     0.025592   
H77      H      0.102510000000     0.583630000000     0.402640000000     0.03822    
H78      H      0.085540000000     0.604480000000     0.599040000000     0.0513862  
H79      H      0.182400000000     0.692960000000     0.601300000000     0.337686   
H80      H      0.135810000000     0.664210000000     0.649450000000     0.104031   
H81      H      0.119250000000     0.803450000000     0.079240000000     0.0348041  
H82      H      0.064930000000     0.859710000000     0.082510000000     0.0391363  
H83      H      0.122030000000     0.920440000000     0.915660000000     0.0470159  
H84      H      0.207090000000     0.841010000000     0.894410000000     0.1057     
H85      H      0.184330000000     0.890590000000     0.868180000000     0.0874913  
H86      H      0.420020000000     0.855660000000     0.924380000000     0.0348776  
H87      H      0.360490000000     0.790610000000     0.927300000000     0.0335603  
H88      H      0.291760000000     0.851920000000     0.072540000000     0.0418512  
H89      H      0.365780000000     0.960200000000     0.070220000000     0.102901   
H90      H      0.318860000000     0.926950000000     0.106080000000     0.0881497  
H91      H      0.441990000000     0.629230000000     0.063280000000     0.0337176  
H92      H      0.388060000000     0.686520000000     0.061820000000     0.0349132  
H93      H      0.291670000000     0.595070000000     0.961140000000     0.0347614  
H94      H      0.362850000000     0.501750000000     0.955160000000     0.102711   
H95      H      0.310750000000     0.522430000000     0.933560000000     0.0876142  
H96      H      0.117410000000     0.697590000000     0.961230000000     0.0286491  
H97      H      0.056170000000     0.633340000000     0.958460000000     0.0342575  
H98      H      0.145670000000     0.548300000000     0.047570000000     0.0436017  
H99      H      0.242760000000     0.638840000000     0.023870000000     0.327864   
H100     H      0.229370000000     0.579190000000     0.050340000000     0.103066   
H101     H      0.781510000000     0.297550000000     0.812540000000     0.0339098  
H102     H      0.776790000000     0.301430000000     0.701530000000     0.035833   
H103     H      0.706680000000     0.166370000000     0.695990000000     0.0344617  
H104     H      0.716850000000     0.144210000000     0.859730000000     0.105633   
H105     H      0.692830000000     0.125230000000     0.787740000000     0.0872748  
H106     H      0.688470000000     0.193470000000     0.312070000000     0.0362787  
H107     H      0.689530000000     0.188530000000     0.201620000000     0.0399266  
H108     H      0.796560000000     0.299620000000     0.192820000000     0.0483734  
H109     H      0.794220000000     0.329550000000     0.354710000000     0.108509   
H110     H      0.820690000000     0.338740000000     0.282160000000     0.0889888  
H111     H      0.608170000000     0.304060000000     0.429860000000     0.0350057  
H112     H      0.554420000000     0.361240000000     0.427030000000     0.0388133  
H113     H      0.609120000000     0.417690000000     0.597630000000     0.0480956  
H114     H      0.693080000000     0.337080000000     0.617920000000     0.105998   
H115     H      0.670280000000     0.386300000000     0.645570000000     0.0888391  
H116     H      0.910560000000     0.359650000000     0.591980000000     0.0328624  
H117     H      0.852440000000     0.293360000000     0.585090000000     0.036507   
H118     H      0.778800000000     0.360080000000     0.450240000000     0.0358539  
H119     H      0.855460000000     0.467290000000     0.452870000000     0.103902   
H120     H      0.806410000000     0.436030000000     0.418580000000     0.0883622  
H121     H      0.860180000000     0.174620000000     0.586730000000     0.033442   
H122     H      0.913830000000     0.117370000000     0.592220000000     0.0380213  
H123     H      0.866620000000     0.064230000000     0.416250000000     0.045478   
H124     H      0.783620000000     0.145120000000     0.391550000000     0.106428   
H125     H      0.807600000000     0.096400000000     0.364550000000     0.0890459  
H126     H      0.665340000000     0.145680000000     0.402050000000     0.0255885  
H127     H      0.602510000000     0.083630000000     0.402640000000     0.0382483  
H128     H      0.585540000000     0.104480000000     0.599040000000     0.0513448  
H129     H      0.682400000000     0.192960000000     0.601300000000     0.337722   
H130     H      0.635810000000     0.164210000000     0.649450000000     0.104014   
H131     H      0.619250000000     0.303450000000     0.079230000000     0.0347762  
H132     H      0.564930000000     0.359710000000     0.082510000000     0.0390593  
H133     H      0.622030000000     0.420440000000     0.915660000000     0.0470501  
H134     H      0.707090000000     0.341010000000     0.894410000000     0.1057     
H135     H      0.684330000000     0.390600000000     0.868170000000     0.0874601  
H136     H      0.920020000000     0.355660000000     0.924380000000     0.0348175  
H137     H      0.860490000000     0.290610000000     0.927300000000     0.0335494  
H138     H      0.791760000000     0.351920000000     0.072540000000     0.0418439  
H139     H      0.865780000000     0.460200000000     0.070220000000     0.103024   
H140     H      0.818860000000     0.426950000000     0.106080000000     0.088212   
H141     H      0.941990000000     0.129230000000     0.063280000000     0.0336468  
H142     H      0.888060000000     0.186520000000     0.061810000000     0.0348902  
H143     H      0.791670000000     0.095070000000     0.961140000000     0.0347951  
H144     H      0.862850000000     0.001750000000     0.955160000000     0.102875   
H145     H      0.810750000000     0.022430000000     0.933560000000     0.0877195  
H146     H      0.617410000000     0.197600000000     0.961230000000     0.0286173  
H147     H      0.556170000000     0.133340000000     0.958450000000     0.0341657  
H148     H      0.645670000000     0.048300000000     0.047570000000     0.0436905  
H149     H      0.742760000000     0.138840000000     0.023870000000     0.327808   
H150     H      0.729380000000     0.079190000000     0.050340000000     0.103093   
H151     H      0.781510000000     0.797550000000     0.812540000000     0.0338895  
H152     H      0.776790000000     0.801430000000     0.701530000000     0.0358132  
H153     H      0.706680000000     0.666370000000     0.695990000000     0.0344355  
H154     H      0.716850000000     0.644210000000     0.859730000000     0.105631   
H155     H      0.692830000000     0.625230000000     0.787740000000     0.0872145  
H156     H      0.688470000000     0.693470000000     0.312070000000     0.036263   
H157     H      0.689530000000     0.688530000000     0.201630000000     0.0399069  
H158     H      0.796560000000     0.799620000000     0.192820000000     0.0483678  
H159     H      0.794220000000     0.829550000000     0.354710000000     0.108494   
H160     H      0.820690000000     0.838740000000     0.282160000000     0.0889995  
H161     H      0.608170000000     0.804060000000     0.429870000000     0.0350071  
H162     H      0.554420000000     0.861240000000     0.427030000000     0.0387846  
H163     H      0.609130000000     0.917700000000     0.597630000000     0.0480435  
H164     H      0.693070000000     0.837080000000     0.617920000000     0.106032   
H165     H      0.670280000000     0.886300000000     0.645570000000     0.088827   
H166     H      0.910560000000     0.859650000000     0.591980000000     0.0328576  
H167     H      0.852440000000     0.793360000000     0.585090000000     0.036496   
H168     H      0.778800000000     0.860080000000     0.450240000000     0.0358413  
H169     H      0.855460000000     0.967290000000     0.452870000000     0.103768   
H170     H      0.806400000000     0.936030000000     0.418580000000     0.0882453  
H171     H      0.860180000000     0.674620000000     0.586730000000     0.0334223  
H172     H      0.913830000000     0.617370000000     0.592220000000     0.0379971  
H173     H      0.866620000000     0.564240000000     0.416260000000     0.0454159  
H174     H      0.783620000000     0.645120000000     0.391560000000     0.106417   
H175     H      0.807600000000     0.596400000000     0.364550000000     0.0889863  
H176     H      0.665340000000     0.645680000000     0.402050000000     0.0255815  
H177     H      0.602510000000     0.583630000000     0.402640000000     0.0381763  
H178     H      0.585540000000     0.604480000000     0.599040000000     0.0513277  
H179     H      0.682400000000     0.692960000000     0.601300000000     0.337679   
H180     H      0.635810000000     0.664210000000     0.649450000000     0.103991   
H181     H      0.619250000000     0.803450000000     0.079240000000     0.0347514  
H182     H      0.564930000000     0.859710000000     0.082510000000     0.0390617  
H183     H      0.622030000000     0.920440000000     0.915660000000     0.0469904  
H184     H      0.707090000000     0.841010000000     0.894410000000     0.105691   
H185     H      0.684330000000     0.890590000000     0.868180000000     0.0874739  
H186     H      0.920020000000     0.855660000000     0.924380000000     0.0348147  
H187     H      0.860500000000     0.790610000000     0.927300000000     0.0335393  
H188     H      0.791760000000     0.851920000000     0.072540000000     0.0418477  
H189     H      0.865780000000     0.960200000000     0.070220000000     0.102905   
H190     H      0.818860000000     0.926950000000     0.106080000000     0.0881407  
H191     H      0.941990000000     0.629230000000     0.063280000000     0.0336341  
H192     H      0.888060000000     0.686520000000     0.061820000000     0.0348716  
H193     H      0.791670000000     0.595070000000     0.961140000000     0.0347611  
H194     H      0.862850000000     0.501750000000     0.955160000000     0.102715   
H195     H      0.810750000000     0.522430000000     0.933560000000     0.0876105  
H196     H      0.617410000000     0.697590000000     0.961230000000     0.0286055  
H197     H      0.556170000000     0.633340000000     0.958460000000     0.0341552  
H198     H      0.645670000000     0.548300000000     0.047570000000     0.0436201  
H199     H      0.742760000000     0.638840000000     0.023870000000     0.327864   
H200     H      0.729370000000     0.579190000000     0.050340000000     0.103064   
N1       N      0.238210000000     0.235250000000     0.689970000000    -0.198872   
N2       N      0.243950000000     0.230580000000     0.820730000000    -0.205692   
N3       N      0.208970000000     0.152450000000     0.814040000000    -0.211924   
N4       N      0.243580000000     0.243370000000     0.188750000000    -0.179327   
N5       N      0.242180000000     0.250110000000     0.320060000000    -0.203282   
N6       N      0.297950000000     0.317380000000     0.309940000000    -0.212992   
N7       N      0.077710000000     0.394250000000     0.512020000000    -0.162355   
N8       N      0.142440000000     0.329100000000     0.513300000000    -0.199177   
N9       N      0.170950000000     0.361840000000     0.610300000000    -0.212877   
N10      N      0.314800000000     0.323250000000     0.514530000000    -0.239392   
N11      N      0.379130000000     0.396630000000     0.520410000000    -0.2056     
N12      N      0.334910000000     0.436020000000     0.448010000000    -0.214163   
N13      N      0.394350000000     0.086170000000     0.504650000000    -0.162909   
N14      N      0.329750000000     0.151210000000     0.500040000000    -0.199296   
N15      N      0.305410000000     0.120240000000     0.400270000000    -0.212871   
N16      N      0.089630000000     0.089880000000     0.500830000000    -0.173583   
N17      N      0.159230000000     0.159430000000     0.498710000000    -0.272308   
N18      N      0.152390000000     0.170400000000     0.606540000000    -0.29803    
N19      N      0.089310000000     0.394710000000     0.999360000000    -0.16138    
N20      N      0.154780000000     0.330400000000     0.997580000000    -0.199702   
N21      N      0.184660000000     0.365400000000     0.902510000000    -0.213208   
N22      N      0.324700000000     0.318040000000     0.001600000000    -0.238188   
N23      N      0.390450000000     0.390960000000     0.999570000000    -0.202547   
N24      N      0.346810000000     0.428140000000     0.075460000000    -0.213523   
N25      N      0.335300000000     0.145020000000     0.012060000000    -0.193212   
N26      N      0.399540000000     0.079480000000     0.009820000000    -0.188723   
N27      N      0.343180000000     0.029090000000     0.954360000000    -0.212486   
N28      N      0.097100000000     0.088100000000     0.005630000000    -0.176614   
N29      N      0.164620000000     0.158350000000     0.005230000000    -0.2774     
N30      N      0.219230000000     0.110460000000     0.035930000000    -0.290637   
N31      N      0.238210000000     0.735250000000     0.689970000000    -0.19891    
N32      N      0.243950000000     0.730570000000     0.820730000000    -0.205698   
N33      N      0.208970000000     0.652450000000     0.814040000000    -0.211964   
N34      N      0.243580000000     0.743370000000     0.188750000000    -0.179328   
N35      N      0.242180000000     0.750110000000     0.320070000000    -0.203307   
N36      N      0.297950000000     0.817380000000     0.309940000000    -0.213005   
N37      N      0.077710000000     0.894250000000     0.512020000000    -0.162378   
N38      N      0.142440000000     0.829100000000     0.513300000000    -0.199177   
N39      N      0.170950000000     0.861840000000     0.610310000000    -0.212882   
N40      N      0.314800000000     0.823250000000     0.514540000000    -0.239407   
N41      N      0.379130000000     0.896630000000     0.520410000000    -0.205593   
N42      N      0.334910000000     0.936020000000     0.448010000000    -0.214158   
N43      N      0.394350000000     0.586170000000     0.504650000000    -0.162942   
N44      N      0.329750000000     0.651210000000     0.500050000000    -0.199309   
N45      N      0.305410000000     0.620240000000     0.400270000000    -0.212879   
N46      N      0.089630000000     0.589880000000     0.500840000000    -0.173613   
N47      N      0.159230000000     0.659430000000     0.498720000000    -0.272377   
N48      N      0.152390000000     0.670400000000     0.606540000000    -0.298021   
N49      N      0.089310000000     0.894710000000     0.999360000000    -0.161372   
N50      N      0.154780000000     0.830400000000     0.997580000000    -0.199699   
N51      N      0.184660000000     0.865400000000     0.902510000000    -0.213269   
N52      N      0.324700000000     0.818040000000     0.001600000000    -0.238201   
N53      N      0.390450000000     0.890960000000     0.999570000000    -0.202533   
N54      N      0.346810000000     0.928140000000     0.075460000000    -0.213521   
N55      N      0.335300000000     0.645020000000     0.012060000000    -0.193233   
N56      N      0.399540000000     0.579480000000     0.009820000000    -0.188745   
N57      N      0.343180000000     0.529090000000     0.954360000000    -0.212483   
N58      N      0.097100000000     0.588090000000     0.005630000000    -0.176693   
N59      N      0.164620000000     0.658350000000     0.005230000000    -0.277398   
N60      N      0.219230000000     0.610460000000     0.035930000000    -0.290675   
N61      N      0.738210000000     0.235250000000     0.689970000000    -0.198874   
N62      N      0.743950000000     0.230580000000     0.820730000000    -0.205694   
N63      N      0.708970000000     0.152450000000     0.814040000000    -0.211925   
N64      N      0.743580000000     0.243370000000     0.188750000000    -0.17933    
N65      N      0.742180000000     0.250110000000     0.320060000000    -0.203283   
N66      N      0.797950000000     0.317380000000     0.309940000000    -0.212993   
N67      N      0.577710000000     0.394250000000     0.512020000000    -0.162391   
N68      N      0.642440000000     0.329100000000     0.513300000000    -0.19918    
N69      N      0.670950000000     0.361840000000     0.610300000000    -0.212878   
N70      N      0.814800000000     0.323250000000     0.514530000000    -0.239398   
N71      N      0.879130000000     0.396630000000     0.520410000000    -0.20559    
N72      N      0.834910000000     0.436020000000     0.448010000000    -0.214163   
N73      N      0.894350000000     0.086170000000     0.504650000000    -0.16291    
N74      N      0.829750000000     0.151210000000     0.500040000000    -0.199299   
N75      N      0.805410000000     0.120240000000     0.400270000000    -0.212872   
N76      N      0.589630000000     0.089880000000     0.500830000000    -0.173616   
N77      N      0.659230000000     0.159430000000     0.498710000000    -0.272308   
N78      N      0.652390000000     0.170400000000     0.606540000000    -0.298031   
N79      N      0.589310000000     0.394710000000     0.999360000000    -0.161419   
N80      N      0.654780000000     0.330400000000     0.997580000000    -0.199696   
N81      N      0.684660000000     0.365400000000     0.902510000000    -0.213187   
N82      N      0.824690000000     0.318040000000     0.001600000000    -0.238257   
N83      N      0.890450000000     0.390960000000     0.999570000000    -0.202534   
N84      N      0.846810000000     0.428140000000     0.075460000000    -0.21352    
N85      N      0.835300000000     0.145020000000     0.012060000000    -0.193216   
N86      N      0.899540000000     0.079480000000     0.009820000000    -0.188725   
N87      N      0.843180000000     0.029090000000     0.954360000000    -0.212488   
N88      N      0.597100000000     0.088100000000     0.005630000000    -0.176651   
N89      N      0.664620000000     0.158350000000     0.005230000000    -0.277399   
N90      N      0.719230000000     0.110460000000     0.035930000000    -0.290636   
N91      N      0.738210000000     0.735250000000     0.689970000000    -0.19891    
N92      N      0.743960000000     0.730570000000     0.820730000000    -0.20573    
N93      N      0.708980000000     0.652450000000     0.814040000000    -0.211968   
N94      N      0.743580000000     0.743370000000     0.188750000000    -0.179334   
N95      N      0.742180000000     0.750110000000     0.320070000000    -0.203304   
N96      N      0.797960000000     0.817380000000     0.309940000000    -0.213009   
N97      N      0.577700000000     0.894250000000     0.512020000000    -0.162446   
N98      N      0.642440000000     0.829100000000     0.513300000000    -0.199183   
N99      N      0.670950000000     0.861840000000     0.610310000000    -0.21292    
N100     N      0.814800000000     0.823250000000     0.514540000000    -0.239411   
N101     N      0.879130000000     0.896630000000     0.520410000000    -0.205584   
N102     N      0.834910000000     0.936020000000     0.448010000000    -0.21412    
N103     N      0.894350000000     0.586170000000     0.504650000000    -0.162943   
N104     N      0.829750000000     0.651210000000     0.500050000000    -0.199312   
N105     N      0.805410000000     0.620240000000     0.400270000000    -0.21288    
N106     N      0.589630000000     0.589880000000     0.500840000000    -0.173653   
N107     N      0.659230000000     0.659430000000     0.498720000000    -0.272377   
N108     N      0.652390000000     0.670400000000     0.606540000000    -0.298021   
N109     N      0.589310000000     0.894710000000     0.999360000000    -0.161403   
N110     N      0.654780000000     0.830400000000     0.997580000000    -0.199743   
N111     N      0.684660000000     0.865400000000     0.902510000000    -0.213272   
N112     N      0.824700000000     0.818040000000     0.001600000000    -0.238198   
N113     N      0.890450000000     0.890960000000     0.999570000000    -0.202504   
N114     N      0.846810000000     0.928140000000     0.075460000000    -0.213521   
N115     N      0.835300000000     0.645020000000     0.012060000000    -0.193236   
N116     N      0.899540000000     0.579480000000     0.009820000000    -0.188747   
N117     N      0.843180000000     0.529090000000     0.954360000000    -0.212484   
N118     N      0.597100000000     0.588090000000     0.005630000000    -0.176709   
N119     N      0.664620000000     0.658350000000     0.005230000000    -0.277415   
N120     N      0.719230000000     0.610460000000     0.035930000000    -0.290683   
O1       O      0.046600000000     0.446580000000     0.950300000000    -0.377761   
O2       O      0.443360000000     0.031750000000     0.955230000000    -0.381058   
O3       O      0.041950000000     0.043720000000     0.954130000000    -0.411331   
O4       O      0.447390000000     0.435670000000     0.950210000000    -0.414408   
O5       O      0.440420000000     0.440990000000     0.053590000000    -0.411449   
O6       O      0.052010000000     0.032730000000     0.056250000000    -0.405784   
O7       O      0.453580000000     0.039010000000     0.057880000000    -0.380888   
O8       O      0.037920000000     0.435320000000     0.052500000000    -0.378188   
O9       O      0.028500000000     0.437760000000     0.459150000000    -0.379029   
O10      O      0.439620000000     0.037190000000     0.455330000000    -0.383714   
O11      O      0.038700000000     0.036740000000     0.452190000000    -0.407545   
O12      O      0.430680000000     0.441350000000     0.462930000000    -0.416225   
O13      O      0.436070000000     0.442820000000     0.567020000000    -0.416795   
O14      O      0.038630000000     0.042340000000     0.555940000000    -0.418722   
O15      O      0.441700000000     0.041420000000     0.559070000000    -0.379484   
O16      O      0.035050000000     0.445550000000     0.562190000000    -0.379788   
O17      O      0.275660000000     0.258740000000     0.912970000000    -0.464675   
O18      O      0.271030000000     0.267530000000     0.092370000000    -0.463071   
O19      O      0.319540000000     0.220480000000     0.008360000000    -0.453475   
O20      O      0.228950000000     0.309710000000     0.989910000000    -0.44544    
O21      O      0.172820000000     0.256940000000     0.014240000000    -0.454507   
O22      O      0.260960000000     0.167000000000     0.010990000000    -0.66563    
O23      O      0.215500000000     0.210830000000     0.096880000000    -0.463589   
O24      O      0.213490000000     0.209890000000     0.917020000000    -0.476      
O25      O      0.270470000000     0.271580000000     0.418920000000    -0.464002   
O26      O      0.266370000000     0.267570000000     0.599210000000    -0.485409   
O27      O      0.309690000000     0.224030000000     0.517510000000    -0.439932   
O28      O      0.217260000000     0.310570000000     0.519680000000    -0.447015   
O29      O      0.162420000000     0.256150000000     0.495940000000    -0.441566   
O30      O      0.255570000000     0.170440000000     0.488120000000    -0.450055   
O31      O      0.210060000000     0.212640000000     0.590930000000    -0.682857   
O32      O      0.209920000000     0.221400000000     0.411640000000    -0.471007   
O33      O      0.046600000000     0.946580000000     0.950300000000    -0.377747   
O34      O      0.443360000000     0.531750000000     0.955230000000    -0.381362   
O35      O      0.041950000000     0.543720000000     0.954130000000    -0.411669   
O36      O      0.447390000000     0.935670000000     0.950210000000    -0.414359   
O37      O      0.440420000000     0.940990000000     0.053590000000    -0.411401   
O38      O      0.052010000000     0.532730000000     0.056250000000    -0.40614    
O39      O      0.453580000000     0.539010000000     0.057880000000    -0.381188   
O40      O      0.037920000000     0.935320000000     0.052500000000    -0.378158   
O41      O      0.028500000000     0.937760000000     0.459150000000    -0.379019   
O42      O      0.439610000000     0.537190000000     0.455330000000    -0.384031   
O43      O      0.038700000000     0.536740000000     0.452190000000    -0.407858   
O44      O      0.430670000000     0.941350000000     0.462930000000    -0.416161   
O45      O      0.436070000000     0.942820000000     0.567020000000    -0.416763   
O46      O      0.038630000000     0.542340000000     0.555940000000    -0.419007   
O47      O      0.441700000000     0.541420000000     0.559070000000    -0.379818   
O48      O      0.035050000000     0.945550000000     0.562190000000    -0.37981    
O49      O      0.275660000000     0.758740000000     0.912970000000    -0.464674   
O50      O      0.271030000000     0.767530000000     0.092370000000    -0.46308    
O51      O      0.319540000000     0.720480000000     0.008360000000    -0.453483   
O52      O      0.228950000000     0.809710000000     0.989910000000    -0.445454   
O53      O      0.172820000000     0.756940000000     0.014240000000    -0.454512   
O54      O      0.260960000000     0.667000000000     0.011000000000    -0.665696   
O55      O      0.215500000000     0.710830000000     0.096880000000    -0.463657   
O56      O      0.213490000000     0.709890000000     0.917020000000    -0.475941   
O57      O      0.270470000000     0.771580000000     0.418920000000    -0.464089   
O58      O      0.266370000000     0.767570000000     0.599210000000    -0.485353   
O59      O      0.309690000000     0.724030000000     0.517510000000    -0.439976   
O60      O      0.217260000000     0.810570000000     0.519680000000    -0.447021   
O61      O      0.162420000000     0.756150000000     0.495940000000    -0.441414   
O62      O      0.255570000000     0.670440000000     0.488130000000    -0.450172   
O63      O      0.210060000000     0.712640000000     0.590930000000    -0.682764   
O64      O      0.209920000000     0.721400000000     0.411640000000    -0.471085   
O65      O      0.546600000000     0.446580000000     0.950300000000    -0.378099   
O66      O      0.943360000000     0.031750000000     0.955230000000    -0.381027   
O67      O      0.541950000000     0.043720000000     0.954130000000    -0.41169    
O68      O      0.947390000000     0.435670000000     0.950210000000    -0.414367   
O69      O      0.940420000000     0.440990000000     0.053590000000    -0.411402   
O70      O      0.552010000000     0.032730000000     0.056250000000    -0.406122   
O71      O      0.953580000000     0.039010000000     0.057880000000    -0.380875   
O72      O      0.537930000000     0.435320000000     0.052500000000    -0.378528   
O73      O      0.528500000000     0.437760000000     0.459150000000    -0.379363   
O74      O      0.939620000000     0.037190000000     0.455330000000    -0.383694   
O75      O      0.538700000000     0.036740000000     0.452190000000    -0.40787    
O76      O      0.930670000000     0.441350000000     0.462930000000    -0.416159   
O77      O      0.936070000000     0.442820000000     0.567020000000    -0.416761   
O78      O      0.538630000000     0.042340000000     0.555940000000    -0.41902    
O79      O      0.941700000000     0.041420000000     0.559070000000    -0.379424   
O80      O      0.535050000000     0.445550000000     0.562190000000    -0.380116   
O81      O      0.775660000000     0.258740000000     0.912970000000    -0.464687   
O82      O      0.771030000000     0.267530000000     0.092370000000    -0.463085   
O83      O      0.819540000000     0.220480000000     0.008360000000    -0.453502   
O84      O      0.728950000000     0.309710000000     0.989910000000    -0.445438   
O85      O      0.672820000000     0.256940000000     0.014240000000    -0.454523   
O86      O      0.760960000000     0.167000000000     0.010990000000    -0.665628   
O87      O      0.715500000000     0.210830000000     0.096880000000    -0.463598   
O88      O      0.713490000000     0.209890000000     0.917020000000    -0.476005   
O89      O      0.770470000000     0.271580000000     0.418920000000    -0.46401    
O90      O      0.766370000000     0.267570000000     0.599210000000    -0.48541    
O91      O      0.809690000000     0.224030000000     0.517510000000    -0.439947   
O92      O      0.717260000000     0.310570000000     0.519680000000    -0.447012   
O93      O      0.662420000000     0.256150000000     0.495940000000    -0.44159    
O94      O      0.755570000000     0.170440000000     0.488120000000    -0.450051   
O95      O      0.710060000000     0.212640000000     0.590930000000    -0.682855   
O96      O      0.709920000000     0.221400000000     0.411640000000    -0.471014   
O97      O      0.546600000000     0.946580000000     0.950300000000    -0.378064   
O98      O      0.943360000000     0.531750000000     0.955230000000    -0.381332   
O99      O      0.541950000000     0.543720000000     0.954130000000    -0.412027   
O100     O      0.947390000000     0.935670000000     0.950210000000    -0.414372   
O101     O      0.940420000000     0.940990000000     0.053590000000    -0.41139    
O102     O      0.552010000000     0.532730000000     0.056250000000    -0.406466   
O103     O      0.953580000000     0.539010000000     0.057880000000    -0.381183   
O104     O      0.537920000000     0.935320000000     0.052500000000    -0.378492   
O105     O      0.528500000000     0.937760000000     0.459150000000    -0.37937    
O106     O      0.939610000000     0.537190000000     0.455330000000    -0.383996   
O107     O      0.538700000000     0.536740000000     0.452190000000    -0.408214   
O108     O      0.930680000000     0.941350000000     0.462930000000    -0.416129   
O109     O      0.936070000000     0.942820000000     0.567020000000    -0.41666    
O110     O      0.538630000000     0.542340000000     0.555940000000    -0.419364   
O111     O      0.941700000000     0.541420000000     0.559070000000    -0.37979    
O112     O      0.535060000000     0.945550000000     0.562190000000    -0.38009    
O113     O      0.775660000000     0.758740000000     0.912970000000    -0.464706   
O114     O      0.771030000000     0.767530000000     0.092370000000    -0.463082   
O115     O      0.819540000000     0.720480000000     0.008360000000    -0.453489   
O116     O      0.728940000000     0.809710000000     0.989910000000    -0.445511   
O117     O      0.672820000000     0.756940000000     0.014240000000    -0.454585   
O118     O      0.760960000000     0.667000000000     0.011000000000    -0.665694   
O119     O      0.715500000000     0.710830000000     0.096880000000    -0.463673   
O120     O      0.713500000000     0.709890000000     0.917020000000    -0.476058   
O121     O      0.770470000000     0.771580000000     0.418920000000    -0.464094   
O122     O      0.766370000000     0.767570000000     0.599210000000    -0.485353   
O123     O      0.809690000000     0.724030000000     0.517510000000    -0.439991   
O124     O      0.717260000000     0.810570000000     0.519680000000    -0.447018   
O125     O      0.662420000000     0.756150000000     0.495940000000    -0.441438   
O126     O      0.755570000000     0.670440000000     0.488130000000    -0.450167   
O127     O      0.710060000000     0.712640000000     0.590930000000    -0.682762   
O128     O      0.709920000000     0.721400000000     0.411640000000    -0.47109    


