data_structure

_audit_creation_method RASPA-1.0
_audit_creation_date 2023-5-23
_audit_author_name 'Poobodin Mano'

_cell_length_a    40.4414
_cell_length_b    42.9968
_cell_length_c    43.1861
_cell_angle_alpha 89.9998
_cell_angle_beta  89.999
_cell_angle_gamma 90.0049
_cell_volume      75094.2

_symmetry_cell_setting          triclinic
_symmetry_space_group_name_Hall 'P 1'
_symmetry_space_group_name_H-M  'P 1'
_symmetry_Int_Tables_number     1

_symmetry_equiv_pos_as_xyz 'x,y,z'

loop_
_atom_site_label
_atom_site_type_symbol
_atom_site_fract_x
_atom_site_fract_y
_atom_site_fract_z
_atom_site_charge
C1       C      0.985110000000     0.261110000000     0.448360000000     0.410832   
C2       C      0.985110000000     0.262670000000     0.070950000000     0.410484   
C3       C      0.985110000000     0.199860000000     0.010340000000     0.4041     
C4       C      0.985110000000     0.323920000000     0.508970000000     0.404622   
C5       C      0.485080000000     0.260830000000     0.320950000000     0.411186   
C6       C      0.485080000000     0.262950000000     0.198360000000     0.411129   
C7       C      0.485070000000     0.323920000000     0.260820000000     0.404802   
C8       C      0.485070000000     0.199860000000     0.258490000000     0.404497   
C9       C      0.485080000000     0.452690000000     0.509000000000     0.479157   
C10      C      0.985080000000     0.071090000000     0.510260000000     0.478348   
C11      C      0.484930000000     0.012580000000     0.449570000000     0.450791   
C12      C      0.984930000000     0.011200000000     0.069690000000     0.450376   
C13      C      0.485030000000     0.452690000000     0.261270000000     0.479659   
C14      C      0.985030000000     0.071090000000     0.258000000000     0.478421   
C15      C      0.484940000000     0.510640000000     0.199580000000     0.451863   
C16      C      0.984950000000     0.513150000000     0.319680000000     0.451565   
C17      C      0.234950000000     0.012330000000     0.070910000000     0.403193   
C18      C      0.234950000000     0.011460000000     0.448330000000     0.403363   
C19      C      0.300890000000     0.011890000000     0.509620000000     0.397235   
C20      C      0.169000000000     0.011890000000     0.009620000000     0.396251   
C21      C      0.234960000000     0.011430000000     0.320910000000     0.403389   
C22      C      0.234970000000     0.012360000000     0.198320000000     0.403458   
C23      C      0.300900000000     0.011890000000     0.259620000000     0.397482   
C24      C      0.169030000000     0.011890000000     0.259620000000     0.397681   
C25      C      0.234350000000     0.483850000000     0.400730000000     0.0306299  
C26      C      0.235570000000     0.038780000000     0.400690000000     0.0296517  
C27      C      0.235530000000     0.038760000000     0.368540000000     0.0296994  
C28      C      0.234410000000     0.483830000000     0.368520000000     0.0306788  
C29      C      0.234360000000     0.039930000000     0.118500000000     0.0297303  
C30      C      0.235570000000     0.485000000000     0.118540000000     0.0305525  
C31      C      0.235530000000     0.485020000000     0.150690000000     0.0305939  
C32      C      0.234410000000     0.039950000000     0.150710000000     0.0297002  
C33      C      0.083380000000     0.485470000000     0.252440000000     0.02641    
C34      C      0.083380000000     0.038310000000     0.266810000000     0.0259894  
C35      C      0.117900000000     0.038540000000     0.266270000000     0.0310516  
C36      C      0.117900000000     0.485250000000     0.252970000000     0.0321983  
C37      C      0.386550000000     0.485370000000     0.252810000000     0.0262684  
C38      C      0.386550000000     0.038400000000     0.266450000000     0.0258779  
C39      C      0.352030000000     0.038620000000     0.265920000000     0.0310813  
C40      C      0.352030000000     0.485160000000     0.253320000000     0.0321546  
C41      C      0.083340000000     0.485660000000     0.017470000000     0.0263381  
C42      C      0.083350000000     0.038120000000     0.501780000000     0.0261743  
C43      C      0.117870000000     0.038360000000     0.502300000000     0.0309614  
C44      C      0.117870000000     0.485420000000     0.016940000000     0.0317301  
C45      C      0.352030000000     0.038500000000     0.016400000000     0.0307439  
C46      C      0.352030000000     0.485280000000     0.502840000000     0.0320566  
C47      C      0.386550000000     0.485500000000     0.502330000000     0.0262943  
C48      C      0.386560000000     0.038280000000     0.016920000000     0.0254684  
C49      C      0.013980000000     0.513580000000     0.400960000000     0.0309122  
C50      C      0.455890000000     0.012570000000     0.400950000000     0.0301781  
C51      C      0.455890000000     0.012810000000     0.368290000000     0.0300849  
C52      C      0.013990000000     0.513750000000     0.368300000000     0.0308079  
C53      C      0.455880000000     0.011200000000     0.118300000000     0.0300829  
C54      C      0.013980000000     0.510200000000     0.118290000000     0.0308961  
C55      C      0.013990000000     0.510040000000     0.150960000000     0.0308383  
C56      C      0.455890000000     0.010960000000     0.150970000000     0.0301331  
C57      C      0.955900000000     0.372060000000     0.261510000000     0.0278202  
C58      C      0.514210000000     0.372080000000     0.261640000000     0.0278591  
C59      C      0.514200000000     0.404550000000     0.261840000000     0.0349223  
C60      C      0.955890000000     0.404530000000     0.261700000000     0.0348958  
C61      C      0.514220000000     0.151710000000     0.257650000000     0.0278481  
C62      C      0.955900000000     0.151720000000     0.257780000000     0.0277435  
C63      C      0.955890000000     0.119250000000     0.257590000000     0.0348769  
C64      C      0.514200000000     0.119230000000     0.257440000000     0.0349282  
C65      C      0.455890000000     0.260660000000     0.400750000000     0.0310322  
C66      C      0.014300000000     0.260530000000     0.400740000000     0.0311899  
C67      C      0.014300000000     0.260430000000     0.368560000000     0.0311277  
C68      C      0.455880000000     0.260550000000     0.368570000000     0.0309137  
C69      C      0.014300000000     0.263250000000     0.118570000000     0.0311629  
C70      C      0.455890000000     0.263120000000     0.118560000000     0.031004   
C71      C      0.455880000000     0.263230000000     0.150740000000     0.0308961  
C72      C      0.014300000000     0.263360000000     0.150750000000     0.0311118  
C73      C      0.455940000000     0.404530000000     0.509580000000     0.0348687  
C74      C      0.014230000000     0.404550000000     0.007890000000     0.0345953  
C75      C      0.014240000000     0.372080000000     0.007940000000     0.0276966  
C76      C      0.455950000000     0.372060000000     0.509500000000     0.027889   
C77      C      0.014250000000     0.151710000000     0.511360000000     0.0280722  
C78      C      0.455950000000     0.151710000000     0.009790000000     0.0274835  
C79      C      0.455950000000     0.119240000000     0.009700000000     0.0345274  
C80      C      0.014240000000     0.119230000000     0.511390000000     0.0349977  
C81      C      0.985100000000     0.261110000000     0.948360000000     0.410314   
C82      C      0.985110000000     0.262670000000     0.570950000000     0.410955   
C83      C      0.985110000000     0.199860000000     0.510340000000     0.404625   
C84      C      0.985110000000     0.323920000000     0.008970000000     0.404091   
C85      C      0.485080000000     0.260830000000     0.820950000000     0.411311   
C86      C      0.485080000000     0.262950000000     0.698360000000     0.411184   
C87      C      0.485070000000     0.323920000000     0.760820000000     0.404841   
C88      C      0.485070000000     0.199860000000     0.758490000000     0.404537   
C89      C      0.485080000000     0.452690000000     0.009000000000     0.478473   
C90      C      0.985080000000     0.071090000000     0.010260000000     0.477658   
C91      C      0.484930000000     0.012580000000     0.949570000000     0.450534   
C92      C      0.984930000000     0.011200000000     0.569690000000     0.450684   
C93      C      0.485030000000     0.452690000000     0.761270000000     0.479668   
C94      C      0.985030000000     0.071090000000     0.757990000000     0.478449   
C95      C      0.484950000000     0.510640000000     0.699580000000     0.451825   
C96      C      0.984950000000     0.513150000000     0.819680000000     0.451665   
C97      C      0.234950000000     0.012330000000     0.570910000000     0.403406   
C98      C      0.234950000000     0.011460000000     0.948330000000     0.40304    
C99      C      0.300890000000     0.011890000000     0.009620000000     0.396425   
C100     C      0.169000000000     0.011890000000     0.509620000000     0.397291   
C101     C      0.234960000000     0.011430000000     0.820910000000     0.403449   
C102     C      0.234970000000     0.012360000000     0.698320000000     0.403239   
C103     C      0.300900000000     0.011890000000     0.759620000000     0.39751    
C104     C      0.169030000000     0.011890000000     0.759620000000     0.397708   
C105     C      0.234360000000     0.483850000000     0.900730000000     0.0309246  
C106     C      0.235570000000     0.038780000000     0.900690000000     0.0299492  
C107     C      0.235530000000     0.038760000000     0.868540000000     0.029913   
C108     C      0.234410000000     0.483830000000     0.868520000000     0.030899   
C109     C      0.234360000000     0.039930000000     0.618500000000     0.0297496  
C110     C      0.235570000000     0.485000000000     0.618540000000     0.0305872  
C111     C      0.235530000000     0.485020000000     0.650690000000     0.0305801  
C112     C      0.234410000000     0.039950000000     0.650710000000     0.0296963  
C113     C      0.083380000000     0.485470000000     0.752440000000     0.0264625  
C114     C      0.083380000000     0.038310000000     0.766810000000     0.0259999  
C115     C      0.117900000000     0.038540000000     0.766270000000     0.0311095  
C116     C      0.117900000000     0.485250000000     0.752970000000     0.0322238  
C117     C      0.386550000000     0.485370000000     0.752810000000     0.0262991  
C118     C      0.386550000000     0.038400000000     0.766450000000     0.0259216  
C119     C      0.352030000000     0.038620000000     0.765920000000     0.0311204  
C120     C      0.352030000000     0.485160000000     0.753320000000     0.0321928  
C121     C      0.083340000000     0.485660000000     0.517470000000     0.0266885  
C122     C      0.083350000000     0.038120000000     0.001780000000     0.022023   
C123     C      0.117870000000     0.038360000000     0.002300000000     0.0271     
C124     C      0.117870000000     0.485420000000     0.516940000000     0.0320029  
C125     C      0.352030000000     0.038500000000     0.516400000000     0.0310114  
C126     C      0.352030000000     0.485280000000     0.002840000000     0.0282056  
C127     C      0.386550000000     0.485500000000     0.002330000000     0.0221297  
C128     C      0.386560000000     0.038280000000     0.516920000000     0.0258453  
C129     C      0.013980000000     0.513580000000     0.900960000000     0.0312193  
C130     C      0.455890000000     0.012570000000     0.900950000000     0.030422   
C131     C      0.455890000000     0.012810000000     0.868290000000     0.0303445  
C132     C      0.013990000000     0.513750000000     0.868300000000     0.0310478  
C133     C      0.455880000000     0.011200000000     0.618300000000     0.0300744  
C134     C      0.013980000000     0.510200000000     0.618290000000     0.0309132  
C135     C      0.013990000000     0.510040000000     0.650960000000     0.0307913  
C136     C      0.455890000000     0.010960000000     0.650970000000     0.0301218  
C137     C      0.955900000000     0.372060000000     0.761510000000     0.0278742  
C138     C      0.514210000000     0.372080000000     0.761640000000     0.027916   
C139     C      0.514200000000     0.404550000000     0.761840000000     0.03498    
C140     C      0.955890000000     0.404530000000     0.761700000000     0.0349523  
C141     C      0.514220000000     0.151710000000     0.757650000000     0.0279395  
C142     C      0.955900000000     0.151720000000     0.757790000000     0.0278082  
C143     C      0.955890000000     0.119250000000     0.757580000000     0.0349402  
C144     C      0.514210000000     0.119230000000     0.757440000000     0.034898   
C145     C      0.455890000000     0.260660000000     0.900750000000     0.03134    
C146     C      0.014300000000     0.260530000000     0.900740000000     0.0315333  
C147     C      0.014300000000     0.260430000000     0.868560000000     0.0313615  
C148     C      0.455880000000     0.260550000000     0.868570000000     0.0311691  
C149     C      0.014300000000     0.263250000000     0.618570000000     0.0311799  
C150     C      0.455890000000     0.263120000000     0.618570000000     0.0309904  
C151     C      0.455880000000     0.263230000000     0.650740000000     0.0309029  
C152     C      0.014300000000     0.263360000000     0.650750000000     0.0311139  
C153     C      0.455940000000     0.404530000000     0.009580000000     0.0345123  
C154     C      0.014230000000     0.404550000000     0.507890000000     0.0349876  
C155     C      0.014240000000     0.372080000000     0.507940000000     0.0280472  
C156     C      0.455950000000     0.372060000000     0.009500000000     0.0274829  
C157     C      0.014250000000     0.151710000000     0.011360000000     0.0276059  
C158     C      0.455960000000     0.151710000000     0.509790000000     0.0278752  
C159     C      0.455950000000     0.119240000000     0.509700000000     0.0348552  
C160     C      0.014240000000     0.119230000000     0.011390000000     0.0346616  
C161     C      0.985100000000     0.761110000000     0.448360000000     0.410846   
C162     C      0.985100000000     0.762670000000     0.070950000000     0.410726   
C163     C      0.985110000000     0.699860000000     0.010340000000     0.404143   
C164     C      0.985110000000     0.823930000000     0.508970000000     0.404615   
C165     C      0.485080000000     0.760830000000     0.320950000000     0.411215   
C166     C      0.485080000000     0.762950000000     0.198360000000     0.411161   
C167     C      0.485070000000     0.823920000000     0.260820000000     0.404683   
C168     C      0.485070000000     0.699860000000     0.258490000000     0.404483   
C169     C      0.485080000000     0.952690000000     0.509000000000     0.478411   
C170     C      0.985090000000     0.571090000000     0.510260000000     0.478962   
C171     C      0.484930000000     0.512580000000     0.449570000000     0.452015   
C172     C      0.984930000000     0.511200000000     0.069690000000     0.45136    
C173     C      0.485030000000     0.952690000000     0.261270000000     0.478895   
C174     C      0.985030000000     0.571090000000     0.258000000000     0.479035   
C175     C      0.484940000000     0.010630000000     0.199580000000     0.45087    
C176     C      0.984950000000     0.013150000000     0.319680000000     0.450804   
C177     C      0.234950000000     0.512320000000     0.070910000000     0.410569   
C178     C      0.234950000000     0.511460000000     0.448330000000     0.410754   
C179     C      0.300890000000     0.511890000000     0.509620000000     0.404577   
C180     C      0.169000000000     0.511890000000     0.009620000000     0.403663   
C181     C      0.234960000000     0.511430000000     0.320910000000     0.410763   
C182     C      0.234970000000     0.512360000000     0.198320000000     0.410866   
C183     C      0.300900000000     0.511890000000     0.259620000000     0.404834   
C184     C      0.169020000000     0.511890000000     0.259620000000     0.404954   
C185     C      0.234350000000     0.983850000000     0.400730000000     0.0351485  
C186     C      0.235570000000     0.538780000000     0.400690000000     0.0305529  
C187     C      0.235530000000     0.538760000000     0.368540000000     0.030595   
C188     C      0.234410000000     0.983830000000     0.368520000000     0.0352092  
C189     C      0.234360000000     0.539930000000     0.118500000000     0.0306264  
C190     C      0.235570000000     0.985000000000     0.118540000000     0.0350808  
C191     C      0.235530000000     0.985020000000     0.150690000000     0.0350883  
C192     C      0.234410000000     0.539950000000     0.150710000000     0.0306266  
C193     C      0.083380000000     0.985470000000     0.252440000000     0.0315984  
C194     C      0.083380000000     0.538310000000     0.266810000000     0.0264546  
C195     C      0.117900000000     0.538540000000     0.266270000000     0.0320936  
C196     C      0.117900000000     0.985250000000     0.252970000000     0.0365621  
C197     C      0.386550000000     0.985370000000     0.252800000000     0.0314277  
C198     C      0.386550000000     0.538400000000     0.266450000000     0.0263467  
C199     C      0.352030000000     0.538620000000     0.265920000000     0.0321235  
C200     C      0.352030000000     0.985160000000     0.253320000000     0.0365521  
C201     C      0.083340000000     0.985660000000     0.017470000000     0.0315196  
C202     C      0.083350000000     0.538120000000     0.501780000000     0.0266586  
C203     C      0.117870000000     0.538360000000     0.502300000000     0.0319837  
C204     C      0.117870000000     0.985420000000     0.016940000000     0.036109   
C205     C      0.352030000000     0.538500000000     0.016400000000     0.0317597  
C206     C      0.352020000000     0.985280000000     0.502840000000     0.0364696  
C207     C      0.386550000000     0.985500000000     0.502330000000     0.0314821  
C208     C      0.386550000000     0.538280000000     0.016920000000     0.0259438  
C209     C      0.013980000000     0.013580000000     0.400960000000     0.0303263  
C210     C      0.455880000000     0.512570000000     0.400950000000     0.0306841  
C211     C      0.455890000000     0.512810000000     0.368290000000     0.0307219  
C212     C      0.013990000000     0.013750000000     0.368300000000     0.0302228  
C213     C      0.455880000000     0.511200000000     0.118300000000     0.0307103  
C214     C      0.013980000000     0.010200000000     0.118290000000     0.0302705  
C215     C      0.013990000000     0.010040000000     0.150960000000     0.030216   
C216     C      0.455890000000     0.510960000000     0.150970000000     0.0307125  
C217     C      0.955900000000     0.872060000000     0.261510000000     0.0280284  
C218     C      0.514210000000     0.872080000000     0.261640000000     0.028057   
C219     C      0.514200000000     0.904550000000     0.261840000000     0.0353294  
C220     C      0.955890000000     0.904530000000     0.261700000000     0.0352979  
C221     C      0.514220000000     0.651710000000     0.257650000000     0.0278068  
C222     C      0.955900000000     0.651720000000     0.257780000000     0.0277932  
C223     C      0.955890000000     0.619250000000     0.257590000000     0.0348667  
C224     C      0.514200000000     0.619230000000     0.257440000000     0.0349352  
C225     C      0.455890000000     0.760660000000     0.400750000000     0.0310372  
C226     C      0.014300000000     0.760530000000     0.400740000000     0.0312328  
C227     C      0.014300000000     0.760430000000     0.368560000000     0.0311533  
C228     C      0.455880000000     0.760550000000     0.368570000000     0.0309555  
C229     C      0.014300000000     0.763250000000     0.118570000000     0.0312187  
C230     C      0.455890000000     0.763120000000     0.118560000000     0.0310489  
C231     C      0.455880000000     0.763230000000     0.150740000000     0.0309274  
C232     C      0.014300000000     0.763360000000     0.150750000000     0.0311382  
C233     C      0.455940000000     0.904530000000     0.509580000000     0.0352663  
C234     C      0.014230000000     0.904550000000     0.007890000000     0.0350073  
C235     C      0.014240000000     0.872080000000     0.007940000000     0.0278997  
C236     C      0.455950000000     0.872060000000     0.509500000000     0.0281135  
C237     C      0.014250000000     0.651710000000     0.511360000000     0.0279637  
C238     C      0.455950000000     0.651710000000     0.009790000000     0.027455   
C239     C      0.455950000000     0.619240000000     0.009700000000     0.0345101  
C240     C      0.014240000000     0.619230000000     0.511390000000     0.0350212  
C241     C      0.985100000000     0.761110000000     0.948360000000     0.410554   
C242     C      0.985100000000     0.762670000000     0.570950000000     0.410971   
C243     C      0.985110000000     0.699860000000     0.510340000000     0.404594   
C244     C      0.985110000000     0.823920000000     0.008970000000     0.404179   
C245     C      0.485080000000     0.760830000000     0.820950000000     0.411306   
C246     C      0.485080000000     0.762950000000     0.698360000000     0.411184   
C247     C      0.485070000000     0.823920000000     0.760820000000     0.404912   
C248     C      0.485070000000     0.699860000000     0.758490000000     0.404826   
C249     C      0.485080000000     0.952690000000     0.009000000000     0.477736   
C250     C      0.985080000000     0.571090000000     0.010260000000     0.478278   
C251     C      0.484930000000     0.512580000000     0.949570000000     0.451513   
C252     C      0.984930000000     0.511200000000     0.569690000000     0.451682   
C253     C      0.485030000000     0.952690000000     0.761270000000     0.478814   
C254     C      0.985030000000     0.571090000000     0.757990000000     0.479058   
C255     C      0.484940000000     0.010630000000     0.699580000000     0.451117   
C256     C      0.984940000000     0.013150000000     0.819680000000     0.450906   
C257     C      0.234950000000     0.512330000000     0.570910000000     0.410789   
C258     C      0.234950000000     0.511460000000     0.948330000000     0.410395   
C259     C      0.300890000000     0.511890000000     0.009620000000     0.403757   
C260     C      0.169000000000     0.511890000000     0.509620000000     0.404412   
C261     C      0.234960000000     0.511430000000     0.820910000000     0.411056   
C262     C      0.234970000000     0.512350000000     0.698320000000     0.410886   
C263     C      0.300900000000     0.511890000000     0.759620000000     0.404855   
C264     C      0.169020000000     0.511890000000     0.759620000000     0.404976   
C265     C      0.234350000000     0.983850000000     0.900730000000     0.035427   
C266     C      0.235570000000     0.538780000000     0.900690000000     0.0308409  
C267     C      0.235530000000     0.538760000000     0.868540000000     0.0308191  
C268     C      0.234410000000     0.983830000000     0.868520000000     0.0354073  
C269     C      0.234360000000     0.539930000000     0.618500000000     0.030652   
C270     C      0.235570000000     0.985000000000     0.618540000000     0.0351001  
C271     C      0.235530000000     0.985020000000     0.650690000000     0.0350784  
C272     C      0.234410000000     0.539950000000     0.650710000000     0.0306377  
C273     C      0.083380000000     0.985470000000     0.752440000000     0.0316539  
C274     C      0.083380000000     0.538310000000     0.766810000000     0.0264654  
C275     C      0.117900000000     0.538540000000     0.766270000000     0.0321504  
C276     C      0.117900000000     0.985250000000     0.752970000000     0.0365796  
C277     C      0.386550000000     0.985370000000     0.752800000000     0.0314489  
C278     C      0.386550000000     0.538400000000     0.766450000000     0.0263779  
C279     C      0.352030000000     0.538620000000     0.765920000000     0.0321722  
C280     C      0.352020000000     0.985160000000     0.753320000000     0.0366106  
C281     C      0.083340000000     0.985660000000     0.517470000000     0.0318776  
C282     C      0.083350000000     0.538120000000     0.001780000000     0.0225102  
C283     C      0.117870000000     0.538360000000     0.002300000000     0.0281332  
C284     C      0.117870000000     0.985420000000     0.516940000000     0.0363713  
C285     C      0.352030000000     0.538500000000     0.516410000000     0.0320061  
C286     C      0.352030000000     0.985280000000     0.002840000000     0.0326056  
C287     C      0.386550000000     0.985500000000     0.002330000000     0.0273467  
C288     C      0.386550000000     0.538280000000     0.516920000000     0.0263221  
C289     C      0.013980000000     0.013580000000     0.900960000000     0.0307053  
C290     C      0.455880000000     0.512580000000     0.900950000000     0.030993   
C291     C      0.455890000000     0.512810000000     0.868290000000     0.0309645  
C292     C      0.013990000000     0.013750000000     0.868300000000     0.0304458  
C293     C      0.455880000000     0.511200000000     0.618300000000     0.0307034  
C294     C      0.013980000000     0.010200000000     0.618290000000     0.0302721  
C295     C      0.013990000000     0.010040000000     0.650960000000     0.0301989  
C296     C      0.455890000000     0.510960000000     0.650970000000     0.0307001  
C297     C      0.955900000000     0.872060000000     0.761510000000     0.0280825  
C298     C      0.514210000000     0.872080000000     0.761640000000     0.0281226  
C299     C      0.514200000000     0.904550000000     0.761840000000     0.0353851  
C300     C      0.955890000000     0.904530000000     0.761700000000     0.0353587  
C301     C      0.514220000000     0.651710000000     0.757650000000     0.027783   
C302     C      0.955900000000     0.651720000000     0.757790000000     0.0278282  
C303     C      0.955890000000     0.619250000000     0.757580000000     0.0349026  
C304     C      0.514200000000     0.619230000000     0.757440000000     0.0350123  
C305     C      0.455890000000     0.760660000000     0.900750000000     0.0313858  
C306     C      0.014300000000     0.760530000000     0.900740000000     0.0315725  
C307     C      0.014300000000     0.760430000000     0.868560000000     0.0313864  
C308     C      0.455880000000     0.760550000000     0.868570000000     0.0311901  
C309     C      0.014300000000     0.763250000000     0.618570000000     0.0312282  
C310     C      0.455890000000     0.763120000000     0.618570000000     0.0310256  
C311     C      0.455880000000     0.763230000000     0.650740000000     0.0309376  
C312     C      0.014300000000     0.763360000000     0.650750000000     0.0311431  
C313     C      0.455940000000     0.904530000000     0.009580000000     0.0349149  
C314     C      0.014230000000     0.904550000000     0.507890000000     0.0354683  
C315     C      0.014240000000     0.872080000000     0.507940000000     0.0282288  
C316     C      0.455950000000     0.872060000000     0.009500000000     0.0276921  
C317     C      0.014250000000     0.651710000000     0.011360000000     0.0275693  
C318     C      0.455950000000     0.651710000000     0.509790000000     0.0277977  
C319     C      0.455950000000     0.619240000000     0.509700000000     0.0349031  
C320     C      0.014240000000     0.619230000000     0.011400000000     0.034673   
C321     C      0.485110000000     0.261110000000     0.448360000000     0.411096   
C322     C      0.485100000000     0.262670000000     0.070950000000     0.41075    
C323     C      0.485110000000     0.199860000000     0.010340000000     0.404359   
C324     C      0.485110000000     0.323920000000     0.508970000000     0.404885   
C325     C      0.985080000000     0.260830000000     0.320950000000     0.410919   
C326     C      0.985080000000     0.262950000000     0.198360000000     0.410863   
C327     C      0.985070000000     0.323920000000     0.260820000000     0.404537   
C328     C      0.985070000000     0.199860000000     0.258490000000     0.404232   
C329     C      0.985080000000     0.452690000000     0.509000000000     0.478878   
C330     C      0.485080000000     0.071090000000     0.510260000000     0.478621   
C331     C      0.984930000000     0.012580000000     0.449570000000     0.450767   
C332     C      0.484930000000     0.011200000000     0.069690000000     0.450656   
C333     C      0.985030000000     0.452690000000     0.261270000000     0.479359   
C334     C      0.485030000000     0.071090000000     0.258000000000     0.4787     
C335     C      0.984940000000     0.510640000000     0.199580000000     0.451573   
C336     C      0.484940000000     0.513150000000     0.319680000000     0.451858   
C337     C      0.734950000000     0.012330000000     0.070910000000     0.403189   
C338     C      0.734950000000     0.011460000000     0.448330000000     0.403359   
C339     C      0.800890000000     0.011890000000     0.509620000000     0.397229   
C340     C      0.669000000000     0.011890000000     0.009620000000     0.396318   
C341     C      0.734960000000     0.011430000000     0.320910000000     0.403389   
C342     C      0.734970000000     0.012360000000     0.198320000000     0.403459   
C343     C      0.800900000000     0.011890000000     0.259620000000     0.397483   
C344     C      0.669030000000     0.011890000000     0.259620000000     0.397682   
C345     C      0.734360000000     0.483850000000     0.400730000000     0.0306321  
C346     C      0.735570000000     0.038780000000     0.400690000000     0.0296534  
C347     C      0.735540000000     0.038760000000     0.368540000000     0.0296984  
C348     C      0.734410000000     0.483830000000     0.368520000000     0.0306789  
C349     C      0.734360000000     0.039930000000     0.118500000000     0.0297306  
C350     C      0.735570000000     0.485000000000     0.118540000000     0.0305526  
C351     C      0.735530000000     0.485020000000     0.150690000000     0.0305953  
C352     C      0.734410000000     0.039950000000     0.150710000000     0.0297013  
C353     C      0.583380000000     0.485470000000     0.252440000000     0.0264164  
C354     C      0.583380000000     0.038310000000     0.266810000000     0.0259832  
C355     C      0.617910000000     0.038540000000     0.266270000000     0.0310794  
C356     C      0.617900000000     0.485250000000     0.252970000000     0.0321878  
C357     C      0.886550000000     0.485370000000     0.252810000000     0.0262626  
C358     C      0.886550000000     0.038400000000     0.266450000000     0.0258744  
C359     C      0.852030000000     0.038620000000     0.265920000000     0.0310829  
C360     C      0.852030000000     0.485160000000     0.253320000000     0.0321578  
C361     C      0.583340000000     0.485660000000     0.017470000000     0.0263395  
C362     C      0.583350000000     0.038120000000     0.501780000000     0.0261728  
C363     C      0.617870000000     0.038360000000     0.502300000000     0.030969   
C364     C      0.617870000000     0.485420000000     0.016940000000     0.0317249  
C365     C      0.852030000000     0.038500000000     0.016400000000     0.0307376  
C366     C      0.852030000000     0.485280000000     0.502840000000     0.0320597  
C367     C      0.886550000000     0.485500000000     0.502330000000     0.0262899  
C368     C      0.886560000000     0.038280000000     0.016920000000     0.0254817  
C369     C      0.513990000000     0.513580000000     0.400960000000     0.0306452  
C370     C      0.955890000000     0.012570000000     0.400950000000     0.0301514  
C371     C      0.955890000000     0.012810000000     0.368290000000     0.0300444  
C372     C      0.513990000000     0.513750000000     0.368300000000     0.0307154  
C373     C      0.955880000000     0.011200000000     0.118300000000     0.0300469  
C374     C      0.513980000000     0.510200000000     0.118290000000     0.0307354  
C375     C      0.513990000000     0.510040000000     0.150960000000     0.0306784  
C376     C      0.955890000000     0.010960000000     0.150970000000     0.0300975  
C377     C      0.455900000000     0.372060000000     0.261510000000     0.0278537  
C378     C      0.014210000000     0.372080000000     0.261640000000     0.0280192  
C379     C      0.014200000000     0.404550000000     0.261840000000     0.0350803  
C380     C      0.455890000000     0.404530000000     0.261700000000     0.0349319  
C381     C      0.014220000000     0.151710000000     0.257650000000     0.0280072  
C382     C      0.455900000000     0.151720000000     0.257780000000     0.0277777  
C383     C      0.455890000000     0.119250000000     0.257590000000     0.0349119  
C384     C      0.014200000000     0.119230000000     0.257440000000     0.0350862  
C385     C      0.955890000000     0.260660000000     0.400750000000     0.0309985  
C386     C      0.514300000000     0.260530000000     0.400740000000     0.0310313  
C387     C      0.514300000000     0.260430000000     0.368560000000     0.0309694  
C388     C      0.955880000000     0.260550000000     0.368570000000     0.0308796  
C389     C      0.514300000000     0.263250000000     0.118570000000     0.0310307  
C390     C      0.955890000000     0.263120000000     0.118560000000     0.0309816  
C391     C      0.955880000000     0.263230000000     0.150740000000     0.0308582  
C392     C      0.514300000000     0.263360000000     0.150750000000     0.0309198  
C393     C      0.955940000000     0.404530000000     0.509580000000     0.0348332  
C394     C      0.514230000000     0.404550000000     0.007890000000     0.034448   
C395     C      0.514240000000     0.372080000000     0.007940000000     0.0275322  
C396     C      0.955950000000     0.372060000000     0.509500000000     0.0278546  
C397     C      0.514250000000     0.151710000000     0.511360000000     0.0279188  
C398     C      0.955960000000     0.151710000000     0.009790000000     0.0275642  
C399     C      0.955950000000     0.119240000000     0.009700000000     0.0344125  
C400     C      0.514240000000     0.119230000000     0.511390000000     0.0348317  
C401     C      0.485100000000     0.261110000000     0.948360000000     0.410579   
C402     C      0.485110000000     0.262670000000     0.570950000000     0.410992   
C403     C      0.485110000000     0.199860000000     0.510340000000     0.404893   
C404     C      0.485110000000     0.323920000000     0.008970000000     0.404355   
C405     C      0.985080000000     0.260830000000     0.820950000000     0.411045   
C406     C      0.985080000000     0.262950000000     0.698360000000     0.410916   
C407     C      0.985070000000     0.323920000000     0.760820000000     0.404573   
C408     C      0.985070000000     0.199860000000     0.758490000000     0.404271   
C409     C      0.985080000000     0.452690000000     0.009000000000     0.477925   
C410     C      0.485080000000     0.071090000000     0.010260000000     0.477866   
C411     C      0.984930000000     0.012580000000     0.949570000000     0.450259   
C412     C      0.484930000000     0.011200000000     0.569690000000     0.450952   
C413     C      0.985030000000     0.452690000000     0.761270000000     0.479389   
C414     C      0.485030000000     0.071090000000     0.757990000000     0.478743   
C415     C      0.984950000000     0.510640000000     0.699580000000     0.451551   
C416     C      0.484950000000     0.513150000000     0.819680000000     0.451935   
C417     C      0.734950000000     0.012330000000     0.570910000000     0.403402   
C418     C      0.734950000000     0.011460000000     0.948330000000     0.403036   
C419     C      0.800890000000     0.011890000000     0.009620000000     0.396422   
C420     C      0.669000000000     0.011890000000     0.509620000000     0.397362   
C421     C      0.734960000000     0.011430000000     0.820910000000     0.40345    
C422     C      0.734970000000     0.012360000000     0.698320000000     0.403241   
C423     C      0.800900000000     0.011890000000     0.759620000000     0.397511   
C424     C      0.669020000000     0.011890000000     0.759620000000     0.397627   
C425     C      0.734350000000     0.483850000000     0.900730000000     0.0309249  
C426     C      0.735570000000     0.038780000000     0.900690000000     0.0299505  
C427     C      0.735540000000     0.038760000000     0.868540000000     0.0299117  
C428     C      0.734400000000     0.483830000000     0.868520000000     0.0308988  
C429     C      0.734360000000     0.039930000000     0.618500000000     0.0297496  
C430     C      0.735570000000     0.485000000000     0.618540000000     0.0305878  
C431     C      0.735530000000     0.485020000000     0.650690000000     0.030581   
C432     C      0.734410000000     0.039950000000     0.650710000000     0.0296973  
C433     C      0.583380000000     0.485470000000     0.752440000000     0.0264601  
C434     C      0.583380000000     0.038310000000     0.766810000000     0.0259958  
C435     C      0.617910000000     0.038540000000     0.766270000000     0.0311495  
C436     C      0.617900000000     0.485250000000     0.752970000000     0.0322101  
C437     C      0.886550000000     0.485370000000     0.752810000000     0.0262959  
C438     C      0.886550000000     0.038400000000     0.766450000000     0.025917   
C439     C      0.852030000000     0.038620000000     0.765920000000     0.0311225  
C440     C      0.852030000000     0.485160000000     0.753320000000     0.0321946  
C441     C      0.583340000000     0.485660000000     0.517470000000     0.0266869  
C442     C      0.583350000000     0.038120000000     0.001780000000     0.0220242  
C443     C      0.617870000000     0.038360000000     0.002300000000     0.0271066  
C444     C      0.617870000000     0.485420000000     0.516940000000     0.0319993  
C445     C      0.852030000000     0.038500000000     0.516400000000     0.0310086  
C446     C      0.852030000000     0.485280000000     0.002840000000     0.028209   
C447     C      0.886550000000     0.485500000000     0.002330000000     0.0221274  
C448     C      0.886550000000     0.038280000000     0.516920000000     0.0258291  
C449     C      0.513980000000     0.513580000000     0.900960000000     0.0310337  
C450     C      0.955890000000     0.012570000000     0.900950000000     0.0303914  
C451     C      0.955890000000     0.012810000000     0.868290000000     0.0303006  
C452     C      0.513990000000     0.513750000000     0.868300000000     0.0308993  
C453     C      0.955880000000     0.011200000000     0.618300000000     0.030039   
C454     C      0.513980000000     0.510200000000     0.618290000000     0.0307476  
C455     C      0.513990000000     0.510040000000     0.650960000000     0.0306389  
C456     C      0.955890000000     0.010960000000     0.650970000000     0.0300845  
C457     C      0.455900000000     0.372060000000     0.761510000000     0.0279089  
C458     C      0.014210000000     0.372080000000     0.761640000000     0.0280752  
C459     C      0.014200000000     0.404550000000     0.761840000000     0.035138   
C460     C      0.455890000000     0.404530000000     0.761700000000     0.0349868  
C461     C      0.014220000000     0.151710000000     0.757650000000     0.0280541  
C462     C      0.455900000000     0.151720000000     0.757780000000     0.0278487  
C463     C      0.455890000000     0.119250000000     0.757580000000     0.0349715  
C464     C      0.014200000000     0.119230000000     0.757440000000     0.035135   
C465     C      0.955890000000     0.260660000000     0.900750000000     0.0313073  
C466     C      0.514300000000     0.260530000000     0.900740000000     0.0313468  
C467     C      0.514300000000     0.260430000000     0.868560000000     0.0312164  
C468     C      0.955880000000     0.260550000000     0.868570000000     0.0311339  
C469     C      0.514300000000     0.263250000000     0.618570000000     0.0310123  
C470     C      0.955890000000     0.263120000000     0.618570000000     0.0309687  
C471     C      0.955880000000     0.263230000000     0.650740000000     0.0308628  
C472     C      0.514300000000     0.263360000000     0.650750000000     0.0309604  
C473     C      0.955940000000     0.404530000000     0.009580000000     0.0344641  
C474     C      0.514230000000     0.404550000000     0.507890000000     0.0348296  
C475     C      0.514240000000     0.372080000000     0.507940000000     0.0278879  
C476     C      0.955950000000     0.372060000000     0.009500000000     0.0274553  
C477     C      0.514250000000     0.151710000000     0.011360000000     0.027444   
C478     C      0.955950000000     0.151710000000     0.509790000000     0.0277366  
C479     C      0.955950000000     0.119240000000     0.509700000000     0.0348762  
C480     C      0.514240000000     0.119230000000     0.011400000000     0.0345021  
C481     C      0.485100000000     0.761110000000     0.448360000000     0.410883   
C482     C      0.485100000000     0.762670000000     0.070950000000     0.410993   
C483     C      0.485110000000     0.699860000000     0.010340000000     0.404408   
C484     C      0.485110000000     0.823930000000     0.508970000000     0.404879   
C485     C      0.985080000000     0.760830000000     0.320950000000     0.41095    
C486     C      0.985080000000     0.762950000000     0.198360000000     0.410897   
C487     C      0.985070000000     0.823920000000     0.260820000000     0.404641   
C488     C      0.985070000000     0.699860000000     0.258490000000     0.40422    
C489     C      0.985080000000     0.952690000000     0.509000000000     0.478141   
C490     C      0.485090000000     0.571090000000     0.510260000000     0.479226   
C491     C      0.984930000000     0.512580000000     0.449570000000     0.451746   
C492     C      0.484930000000     0.511200000000     0.069690000000     0.451635   
C493     C      0.985030000000     0.952690000000     0.261270000000     0.478617   
C494     C      0.485030000000     0.571090000000     0.258000000000     0.479335   
C495     C      0.984940000000     0.010630000000     0.199580000000     0.450599   
C496     C      0.484950000000     0.013150000000     0.319680000000     0.451076   
C497     C      0.734950000000     0.512320000000     0.070910000000     0.410565   
C498     C      0.734950000000     0.511460000000     0.448330000000     0.410755   
C499     C      0.800890000000     0.511890000000     0.509620000000     0.404581   
C500     C      0.669000000000     0.511890000000     0.009620000000     0.403593   
C501     C      0.734960000000     0.511430000000     0.320910000000     0.410768   
C502     C      0.734970000000     0.512360000000     0.198320000000     0.410872   
C503     C      0.800900000000     0.511890000000     0.259620000000     0.40484    
C504     C      0.669020000000     0.511890000000     0.259620000000     0.404885   
C505     C      0.734350000000     0.983850000000     0.400730000000     0.0351507  
C506     C      0.735570000000     0.538780000000     0.400690000000     0.0305535  
C507     C      0.735530000000     0.538760000000     0.368540000000     0.0305956  
C508     C      0.734400000000     0.983830000000     0.368520000000     0.035208   
C509     C      0.734360000000     0.539930000000     0.118500000000     0.0306273  
C510     C      0.735570000000     0.985000000000     0.118540000000     0.0350817  
C511     C      0.735530000000     0.985020000000     0.150690000000     0.0350893  
C512     C      0.734410000000     0.539950000000     0.150710000000     0.0306274  
C513     C      0.583380000000     0.985470000000     0.252440000000     0.031593   
C514     C      0.583380000000     0.538310000000     0.266810000000     0.0264587  
C515     C      0.617900000000     0.538540000000     0.266270000000     0.03209    
C516     C      0.617900000000     0.985250000000     0.252970000000     0.0365636  
C517     C      0.886550000000     0.985370000000     0.252800000000     0.031424   
C518     C      0.886550000000     0.538400000000     0.266450000000     0.0263373  
C519     C      0.852030000000     0.538620000000     0.265920000000     0.0321269  
C520     C      0.852030000000     0.985160000000     0.253320000000     0.0365538  
C521     C      0.583340000000     0.985660000000     0.017470000000     0.0315189  
C522     C      0.583350000000     0.538120000000     0.501780000000     0.0266568  
C523     C      0.617870000000     0.538360000000     0.502300000000     0.0319805  
C524     C      0.617870000000     0.985420000000     0.016940000000     0.0361081  
C525     C      0.852030000000     0.538500000000     0.016400000000     0.0317621  
C526     C      0.852020000000     0.985280000000     0.502840000000     0.0364704  
C527     C      0.886550000000     0.985500000000     0.502330000000     0.0314773  
C528     C      0.886550000000     0.538280000000     0.016920000000     0.0259393  
C529     C      0.513980000000     0.013580000000     0.400960000000     0.0301549  
C530     C      0.955880000000     0.512570000000     0.400950000000     0.0306472  
C531     C      0.955890000000     0.512810000000     0.368290000000     0.0306901  
C532     C      0.513990000000     0.013750000000     0.368300000000     0.0300691  
C533     C      0.955880000000     0.511200000000     0.118300000000     0.0306752  
C534     C      0.513980000000     0.010200000000     0.118290000000     0.0301118  
C535     C      0.513990000000     0.010040000000     0.150960000000     0.0300562  
C536     C      0.955890000000     0.510960000000     0.150970000000     0.0306761  
C537     C      0.455900000000     0.872060000000     0.261510000000     0.0280541  
C538     C      0.014210000000     0.872080000000     0.261640000000     0.0282274  
C539     C      0.014200000000     0.904550000000     0.261840000000     0.0354813  
C540     C      0.455890000000     0.904530000000     0.261700000000     0.0353372  
C541     C      0.014220000000     0.651710000000     0.257650000000     0.0278934  
C542     C      0.455900000000     0.651720000000     0.257780000000     0.0277535  
C543     C      0.455890000000     0.619250000000     0.257590000000     0.0349326  
C544     C      0.014200000000     0.619230000000     0.257440000000     0.0351227  
C545     C      0.955890000000     0.760660000000     0.400750000000     0.0310152  
C546     C      0.514300000000     0.760530000000     0.400740000000     0.0310658  
C547     C      0.514300000000     0.760430000000     0.368560000000     0.0309997  
C548     C      0.955880000000     0.760550000000     0.368570000000     0.0309155  
C549     C      0.514300000000     0.763250000000     0.118570000000     0.0310608  
C550     C      0.955890000000     0.763120000000     0.118560000000     0.031015   
C551     C      0.955880000000     0.763230000000     0.150740000000     0.0308936  
C552     C      0.514300000000     0.763360000000     0.150750000000     0.0309801  
C553     C      0.955950000000     0.904530000000     0.509580000000     0.0352563  
C554     C      0.514230000000     0.904550000000     0.007890000000     0.0348508  
C555     C      0.514240000000     0.872080000000     0.007940000000     0.0277406  
C556     C      0.955950000000     0.872060000000     0.509500000000     0.0280543  
C557     C      0.514250000000     0.651710000000     0.511360000000     0.0278046  
C558     C      0.955950000000     0.651710000000     0.009790000000     0.0274196  
C559     C      0.955950000000     0.619240000000     0.009700000000     0.0344762  
C560     C      0.514240000000     0.619230000000     0.511390000000     0.0348626  
C561     C      0.485100000000     0.761110000000     0.948360000000     0.41082    
C562     C      0.485100000000     0.762670000000     0.570950000000     0.411235   
C563     C      0.485110000000     0.699860000000     0.510340000000     0.404857   
C564     C      0.485110000000     0.823920000000     0.008970000000     0.404443   
C565     C      0.985080000000     0.760830000000     0.820950000000     0.411042   
C566     C      0.985080000000     0.762950000000     0.698360000000     0.410917   
C567     C      0.985070000000     0.823920000000     0.760820000000     0.404645   
C568     C      0.985070000000     0.699860000000     0.758490000000     0.404561   
C569     C      0.985080000000     0.952690000000     0.009000000000     0.477448   
C570     C      0.485080000000     0.571090000000     0.010260000000     0.478559   
C571     C      0.984930000000     0.512580000000     0.949570000000     0.45124    
C572     C      0.484930000000     0.511200000000     0.569690000000     0.451947   
C573     C      0.985030000000     0.952690000000     0.761270000000     0.478516   
C574     C      0.485030000000     0.571090000000     0.757990000000     0.479336   
C575     C      0.984940000000     0.010630000000     0.699580000000     0.450827   
C576     C      0.484940000000     0.013150000000     0.819680000000     0.451197   
C577     C      0.734950000000     0.512330000000     0.570910000000     0.41079    
C578     C      0.734950000000     0.511460000000     0.948330000000     0.4104     
C579     C      0.800890000000     0.511890000000     0.009620000000     0.403765   
C580     C      0.669000000000     0.511890000000     0.509620000000     0.404409   
C581     C      0.734960000000     0.511430000000     0.820910000000     0.411056   
C582     C      0.734970000000     0.512350000000     0.698320000000     0.410886   
C583     C      0.800900000000     0.511890000000     0.759620000000     0.404857   
C584     C      0.669030000000     0.511890000000     0.759620000000     0.405061   
C585     C      0.734360000000     0.983850000000     0.900730000000     0.0354296  
C586     C      0.735570000000     0.538780000000     0.900690000000     0.0308424  
C587     C      0.735530000000     0.538760000000     0.868540000000     0.0308198  
C588     C      0.734410000000     0.983830000000     0.868520000000     0.035407   
C589     C      0.734360000000     0.539930000000     0.618500000000     0.0306531  
C590     C      0.735570000000     0.985000000000     0.618540000000     0.035101   
C591     C      0.735530000000     0.985020000000     0.650690000000     0.0350792  
C592     C      0.734410000000     0.539950000000     0.650710000000     0.0306384  
C593     C      0.583380000000     0.985470000000     0.752440000000     0.0316526  
C594     C      0.583390000000     0.538310000000     0.766810000000     0.0264558  
C595     C      0.617900000000     0.538540000000     0.766270000000     0.0321323  
C596     C      0.617900000000     0.985250000000     0.752970000000     0.0365934  
C597     C      0.886550000000     0.985370000000     0.752800000000     0.0314444  
C598     C      0.886550000000     0.538400000000     0.766450000000     0.0263744  
C599     C      0.852030000000     0.538620000000     0.765920000000     0.032174   
C600     C      0.852020000000     0.985160000000     0.753320000000     0.0366125  
C601     C      0.583340000000     0.985660000000     0.517470000000     0.0318775  
C602     C      0.583340000000     0.538120000000     0.001780000000     0.0225201  
C603     C      0.617870000000     0.538360000000     0.002300000000     0.028126   
C604     C      0.617870000000     0.985420000000     0.516940000000     0.036373   
C605     C      0.852030000000     0.538500000000     0.516410000000     0.0320109  
C606     C      0.852030000000     0.985280000000     0.002840000000     0.0326074  
C607     C      0.886550000000     0.985500000000     0.002330000000     0.0273391  
C608     C      0.886550000000     0.538280000000     0.516920000000     0.0263167  
C609     C      0.513990000000     0.013580000000     0.900960000000     0.0304441  
C610     C      0.955880000000     0.512580000000     0.900950000000     0.0309458  
C611     C      0.955890000000     0.512810000000     0.868290000000     0.030955   
C612     C      0.513990000000     0.013750000000     0.868300000000     0.0303406  
C613     C      0.955890000000     0.511200000000     0.618300000000     0.0307708  
C614     C      0.513980000000     0.010200000000     0.618290000000     0.0301118  
C615     C      0.513990000000     0.010040000000     0.650960000000     0.0300403  
C616     C      0.955890000000     0.510960000000     0.650970000000     0.0306102  
C617     C      0.455900000000     0.872060000000     0.761510000000     0.0281165  
C618     C      0.014210000000     0.872080000000     0.761640000000     0.0282821  
C619     C      0.014200000000     0.904550000000     0.761840000000     0.0355422  
C620     C      0.455890000000     0.904530000000     0.761700000000     0.035394   
C621     C      0.014220000000     0.651710000000     0.757650000000     0.027942   
C622     C      0.455900000000     0.651720000000     0.757780000000     0.0278623  
C623     C      0.455890000000     0.619250000000     0.757580000000     0.0349375  
C624     C      0.014200000000     0.619230000000     0.757440000000     0.0351706  
C625     C      0.955890000000     0.760660000000     0.900750000000     0.0313504  
C626     C      0.514300000000     0.760530000000     0.900740000000     0.031428   
C627     C      0.514300000000     0.760430000000     0.868560000000     0.0311997  
C628     C      0.955880000000     0.760550000000     0.868570000000     0.0311578  
C629     C      0.514300000000     0.763250000000     0.618570000000     0.0310698  
C630     C      0.955890000000     0.763120000000     0.618570000000     0.0309917  
C631     C      0.955880000000     0.763230000000     0.650740000000     0.0309033  
C632     C      0.514300000000     0.763360000000     0.650750000000     0.0309853  
C633     C      0.955940000000     0.904530000000     0.009580000000     0.0348799  
C634     C      0.514230000000     0.904550000000     0.507890000000     0.0352255  
C635     C      0.514240000000     0.872080000000     0.507940000000     0.0281108  
C636     C      0.955950000000     0.872060000000     0.009500000000     0.0276583  
C637     C      0.514250000000     0.651710000000     0.011360000000     0.0274217  
C638     C      0.955950000000     0.651710000000     0.509790000000     0.0277629  
C639     C      0.955950000000     0.619240000000     0.509700000000     0.0348687  
C640     C      0.514240000000     0.619230000000     0.011400000000     0.0344898  
Cu1      Cu     0.015640000000     0.261890000000     0.009650000000     0.853831   
Cu2      Cu     0.454580000000     0.261890000000     0.509660000000     0.857613   
Cu3      Cu     0.015610000000     0.261890000000     0.259660000000     0.857503   
Cu4      Cu     0.454550000000     0.261890000000     0.259660000000     0.85763    
Cu5      Cu     0.450080000000     0.511890000000     0.509630000000     1.1708     
Cu6      Cu     0.019880000000     0.011890000000     0.009630000000     1.16194    
Cu7      Cu     0.450070000000     0.511890000000     0.259630000000     1.17133    
Cu8      Cu     0.019880000000     0.011890000000     0.259630000000     1.16583    
Cu9      Cu     0.234940000000     0.483180000000     0.509770000000     0.856588   
Cu10     Cu     0.234950000000     0.040600000000     0.009470000000     0.846546   
Cu11     Cu     0.234960000000     0.483170000000     0.259250000000     0.857098   
Cu12     Cu     0.234960000000     0.040610000000     0.259990000000     0.850701   
Cu13     Cu     0.015640000000     0.261890000000     0.509660000000     0.857462   
Cu14     Cu     0.454580000000     0.261890000000     0.009660000000     0.854075   
Cu15     Cu     0.015610000000     0.261890000000     0.759650000000     0.857744   
Cu16     Cu     0.454540000000     0.261890000000     0.759650000000     0.857648   
Cu17     Cu     0.450080000000     0.511890000000     0.009630000000     1.16672    
Cu18     Cu     0.019880000000     0.011890000000     0.509630000000     1.16596    
Cu19     Cu     0.450070000000     0.511890000000     0.759630000000     1.17116    
Cu20     Cu     0.019880000000     0.011890000000     0.759630000000     1.16584    
Cu21     Cu     0.234940000000     0.483180000000     0.009770000000     0.852973   
Cu22     Cu     0.234950000000     0.040600000000     0.509470000000     0.850229   
Cu23     Cu     0.234960000000     0.483170000000     0.759240000000     0.857253   
Cu24     Cu     0.234960000000     0.040610000000     0.759990000000     0.850783   
Cu25     Cu     0.015640000000     0.761890000000     0.009650000000     0.853718   
Cu26     Cu     0.454580000000     0.761890000000     0.509660000000     0.85766    
Cu27     Cu     0.015610000000     0.761890000000     0.259660000000     0.857614   
Cu28     Cu     0.454540000000     0.761890000000     0.259660000000     0.857653   
Cu29     Cu     0.450080000000     0.011890000000     0.509630000000     1.16491    
Cu30     Cu     0.019880000000     0.511890000000     0.009630000000     1.16792    
Cu31     Cu     0.450070000000     0.011890000000     0.259630000000     1.16518    
Cu32     Cu     0.019880000000     0.511890000000     0.259630000000     1.17184    
Cu33     Cu     0.234940000000     0.983180000000     0.509770000000     0.860419   
Cu34     Cu     0.234950000000     0.540600000000     0.009470000000     0.852927   
Cu35     Cu     0.234960000000     0.983170000000     0.259250000000     0.860898   
Cu36     Cu     0.234960000000     0.540610000000     0.259990000000     0.85724    
Cu37     Cu     0.015640000000     0.761890000000     0.509660000000     0.8574     
Cu38     Cu     0.454580000000     0.761890000000     0.009660000000     0.854159   
Cu39     Cu     0.015610000000     0.761890000000     0.759650000000     0.857652   
Cu40     Cu     0.454550000000     0.761890000000     0.759650000000     0.857632   
Cu41     Cu     0.450080000000     0.011890000000     0.009630000000     1.16056    
Cu42     Cu     0.019880000000     0.511890000000     0.509630000000     1.17206    
Cu43     Cu     0.450070000000     0.011890000000     0.759630000000     1.16536    
Cu44     Cu     0.019880000000     0.511890000000     0.759630000000     1.17189    
Cu45     Cu     0.234940000000     0.983180000000     0.009770000000     0.856745   
Cu46     Cu     0.234950000000     0.540600000000     0.509470000000     0.856749   
Cu47     Cu     0.234960000000     0.983170000000     0.759240000000     0.860964   
Cu48     Cu     0.234960000000     0.540610000000     0.759990000000     0.857338   
Cu49     Cu     0.515640000000     0.261890000000     0.009650000000     0.853677   
Cu50     Cu     0.954580000000     0.261890000000     0.509660000000     0.857412   
Cu51     Cu     0.515610000000     0.261890000000     0.259660000000     0.857377   
Cu52     Cu     0.954550000000     0.261890000000     0.259660000000     0.857399   
Cu53     Cu     0.950080000000     0.511890000000     0.509630000000     1.1706     
Cu54     Cu     0.519880000000     0.011890000000     0.009630000000     1.16211    
Cu55     Cu     0.950070000000     0.511890000000     0.259630000000     1.17098    
Cu56     Cu     0.519880000000     0.011890000000     0.259630000000     1.1658     
Cu57     Cu     0.734940000000     0.483180000000     0.509770000000     0.856588   
Cu58     Cu     0.734950000000     0.040600000000     0.009470000000     0.846428   
Cu59     Cu     0.734960000000     0.483170000000     0.259250000000     0.857224   
Cu60     Cu     0.734960000000     0.040610000000     0.259990000000     0.850705   
Cu61     Cu     0.515640000000     0.261890000000     0.509660000000     0.857314   
Cu62     Cu     0.954580000000     0.261890000000     0.009660000000     0.853818   
Cu63     Cu     0.515610000000     0.261890000000     0.759650000000     0.857618   
Cu64     Cu     0.954540000000     0.261890000000     0.759650000000     0.857416   
Cu65     Cu     0.950080000000     0.511890000000     0.009630000000     1.16648    
Cu66     Cu     0.519880000000     0.011890000000     0.509630000000     1.1659     
Cu67     Cu     0.950070000000     0.511890000000     0.759630000000     1.17095    
Cu68     Cu     0.519890000000     0.011890000000     0.759630000000     1.16594    
Cu69     Cu     0.734940000000     0.483180000000     0.009770000000     0.852954   
Cu70     Cu     0.734950000000     0.040600000000     0.509470000000     0.850107   
Cu71     Cu     0.734960000000     0.483170000000     0.759240000000     0.85726    
Cu72     Cu     0.734960000000     0.040610000000     0.759990000000     0.850784   
Cu73     Cu     0.515640000000     0.761890000000     0.009650000000     0.853591   
Cu74     Cu     0.954580000000     0.761890000000     0.509660000000     0.857459   
Cu75     Cu     0.515610000000     0.761890000000     0.259660000000     0.857459   
Cu76     Cu     0.954540000000     0.761890000000     0.259660000000     0.857441   
Cu77     Cu     0.950080000000     0.011890000000     0.509630000000     1.16474    
Cu78     Cu     0.519880000000     0.511890000000     0.009630000000     1.16793    
Cu79     Cu     0.950070000000     0.011890000000     0.259630000000     1.16497    
Cu80     Cu     0.519890000000     0.511890000000     0.259630000000     1.17191    
Cu81     Cu     0.734940000000     0.983180000000     0.509770000000     0.860447   
Cu82     Cu     0.734950000000     0.540600000000     0.009470000000     0.853054   
Cu83     Cu     0.734960000000     0.983170000000     0.259250000000     0.860902   
Cu84     Cu     0.734960000000     0.540610000000     0.259990000000     0.857225   
Cu85     Cu     0.515640000000     0.761890000000     0.509660000000     0.857253   
Cu86     Cu     0.954580000000     0.761890000000     0.009660000000     0.853929   
Cu87     Cu     0.515610000000     0.761890000000     0.759650000000     0.857526   
Cu88     Cu     0.954550000000     0.761890000000     0.759650000000     0.857401   
Cu89     Cu     0.950080000000     0.011890000000     0.009630000000     1.16037    
Cu90     Cu     0.519880000000     0.511890000000     0.509630000000     1.17203    
Cu91     Cu     0.950070000000     0.011890000000     0.759630000000     1.16504    
Cu92     Cu     0.519880000000     0.511890000000     0.759630000000     1.17186    
Cu93     Cu     0.734940000000     0.983180000000     0.009770000000     0.856768   
Cu94     Cu     0.734950000000     0.540600000000     0.509470000000     0.856757   
Cu95     Cu     0.734960000000     0.983170000000     0.759240000000     0.860965   
Cu96     Cu     0.734960000000     0.540610000000     0.759990000000     0.857345   
H1       H      0.233880000000     0.461580000000     0.412490000000     0.0382474  
H2       H      0.236050000000     0.061100000000     0.412380000000     0.0382013  
H3       H      0.236010000000     0.061080000000     0.356850000000     0.0382305  
H4       H      0.233930000000     0.461550000000     0.356760000000     0.0382121  
H5       H      0.233890000000     0.062210000000     0.106740000000     0.0381702  
H6       H      0.236040000000     0.462680000000     0.106860000000     0.0380213  
H7       H      0.236010000000     0.462700000000     0.162380000000     0.0381162  
H8       H      0.233950000000     0.062230000000     0.162470000000     0.0382196  
H9       H      0.070340000000     0.464490000000     0.246180000000     0.0288082  
H10      H      0.070360000000     0.059290000000     0.273060000000     0.0288636  
H11      H      0.130460000000     0.060070000000     0.272000000000     0.0365175  
H12      H      0.130450000000     0.463720000000     0.247230000000     0.0363721  
H13      H      0.399560000000     0.464300000000     0.246850000000     0.0288667  
H14      H      0.399570000000     0.059470000000     0.272410000000     0.02892    
H15      H      0.339480000000     0.060220000000     0.271370000000     0.0365255  
H16      H      0.339480000000     0.463550000000     0.247880000000     0.0363973  
H17      H      0.070280000000     0.464850000000     0.024250000000     0.0285509  
H18      H      0.070290000000     0.058930000000     0.495000000000     0.0287056  
H19      H      0.130420000000     0.059740000000     0.496030000000     0.0365433  
H20      H      0.130420000000     0.464040000000     0.023210000000     0.0361741  
H21      H      0.339480000000     0.060000000000     0.022230000000     0.0363059  
H22      H      0.339480000000     0.463770000000     0.497010000000     0.036485   
H23      H      0.399570000000     0.464540000000     0.496010000000     0.0287699  
H24      H      0.399580000000     0.059230000000     0.023240000000     0.028746   
H25      H      0.037700000000     0.513910000000     0.412670000000     0.0389857  
H26      H      0.432170000000     0.012090000000     0.412650000000     0.0382354  
H27      H      0.432180000000     0.012470000000     0.356580000000     0.0383458  
H28      H      0.037700000000     0.514190000000     0.356600000000     0.039037   
H29      H      0.432170000000     0.011680000000     0.106610000000     0.0383256  
H30      H      0.037690000000     0.509880000000     0.106590000000     0.0389889  
H31      H      0.037700000000     0.509600000000     0.162660000000     0.0390219  
H32      H      0.432170000000     0.011300000000     0.162670000000     0.0382591  
H33      H      0.932190000000     0.360280000000     0.261400000000     0.0386103  
H34      H      0.537930000000     0.360320000000     0.261640000000     0.0386025  
H35      H      0.537900000000     0.416330000000     0.261990000000     0.0348226  
H36      H      0.932180000000     0.416280000000     0.261730000000     0.0347303  
H37      H      0.537930000000     0.163480000000     0.257660000000     0.0386014  
H38      H      0.932200000000     0.163490000000     0.257900000000     0.0386161  
H39      H      0.932190000000     0.107490000000     0.257540000000     0.034714   
H40      H      0.537900000000     0.107470000000     0.257290000000     0.0347814  
H41      H      0.432180000000     0.260750000000     0.412480000000     0.0383194  
H42      H      0.038020000000     0.260530000000     0.412460000000     0.0383075  
H43      H      0.038010000000     0.260360000000     0.356830000000     0.0383277  
H44      H      0.432170000000     0.260570000000     0.356850000000     0.0383461  
H45      H      0.038020000000     0.263270000000     0.106850000000     0.0382143  
H46      H      0.432180000000     0.263020000000     0.106840000000     0.0382305  
H47      H      0.432170000000     0.263200000000     0.162460000000     0.0383063  
H48      H      0.038010000000     0.263440000000     0.162480000000     0.0382855  
H49      H      0.432250000000     0.416290000000     0.510330000000     0.0347606  
H50      H      0.037920000000     0.416330000000     0.007170000000     0.0345921  
H51      H      0.037940000000     0.360310000000     0.007270000000     0.0381588  
H52      H      0.432250000000     0.360290000000     0.510180000000     0.038597   
H53      H      0.037950000000     0.163480000000     0.512030000000     0.0385844  
H54      H      0.432260000000     0.163490000000     0.009120000000     0.0381786  
H55      H      0.432250000000     0.107480000000     0.008950000000     0.0343582  
H56      H      0.037930000000     0.107460000000     0.512100000000     0.0349174  
H57      H      0.233880000000     0.461580000000     0.912490000000     0.0388396  
H58      H      0.236050000000     0.061100000000     0.912380000000     0.0387896  
H59      H      0.236010000000     0.061080000000     0.856850000000     0.0384733  
H60      H      0.233930000000     0.461550000000     0.856760000000     0.0384529  
H61      H      0.233890000000     0.062210000000     0.606740000000     0.0382749  
H62      H      0.236040000000     0.462680000000     0.606860000000     0.0381221  
H63      H      0.236010000000     0.462700000000     0.662380000000     0.0381651  
H64      H      0.233950000000     0.062230000000     0.662470000000     0.0382691  
H65      H      0.070340000000     0.464500000000     0.746180000000     0.0288231  
H66      H      0.070360000000     0.059290000000     0.773060000000     0.0289376  
H67      H      0.130460000000     0.060070000000     0.772000000000     0.0366078  
H68      H      0.130450000000     0.463720000000     0.747240000000     0.036428   
H69      H      0.399560000000     0.464300000000     0.746850000000     0.0288908  
H70      H      0.399570000000     0.059470000000     0.772410000000     0.0289869  
H71      H      0.339480000000     0.060220000000     0.771360000000     0.0366253  
H72      H      0.339480000000     0.463550000000     0.747880000000     0.0364484  
H73      H      0.070280000000     0.464850000000     0.524250000000     0.02863    
H74      H      0.070290000000     0.058930000000     0.995010000000     0.0332708  
H75      H      0.130420000000     0.059740000000     0.996030000000     0.040912   
H76      H      0.130420000000     0.464040000000     0.523210000000     0.0364511  
H77      H      0.339480000000     0.060000000000     0.522230000000     0.0365936  
H78      H      0.339480000000     0.463770000000     0.997010000000     0.0408623  
H79      H      0.399570000000     0.464540000000     0.996010000000     0.033382   
H80      H      0.399580000000     0.059240000000     0.523240000000     0.0288418  
H81      H      0.037700000000     0.513910000000     0.912670000000     0.0396121  
H82      H      0.432170000000     0.012090000000     0.912650000000     0.0388803  
H83      H      0.432180000000     0.012470000000     0.856590000000     0.0385456  
H84      H      0.037700000000     0.514190000000     0.856600000000     0.0392482  
H85      H      0.432170000000     0.011680000000     0.606610000000     0.0383076  
H86      H      0.037690000000     0.509880000000     0.606580000000     0.0389791  
H87      H      0.037700000000     0.509600000000     0.662660000000     0.0390218  
H88      H      0.432170000000     0.011300000000     0.662670000000     0.0382425  
H89      H      0.932190000000     0.360280000000     0.761400000000     0.0386888  
H90      H      0.537930000000     0.360320000000     0.761640000000     0.0386871  
H91      H      0.537900000000     0.416330000000     0.761990000000     0.0348894  
H92      H      0.932180000000     0.416280000000     0.761730000000     0.0347883  
H93      H      0.537930000000     0.163480000000     0.757660000000     0.0386644  
H94      H      0.932190000000     0.163490000000     0.757900000000     0.0386804  
H95      H      0.932180000000     0.107490000000     0.757540000000     0.0347521  
H96      H      0.537910000000     0.107470000000     0.757290000000     0.034842   
H97      H      0.432180000000     0.260750000000     0.912470000000     0.0389562  
H98      H      0.038020000000     0.260530000000     0.912460000000     0.0389436  
H99      H      0.038010000000     0.260360000000     0.856830000000     0.0385894  
H100     H      0.432170000000     0.260570000000     0.856850000000     0.0386082  
H101     H      0.038020000000     0.263270000000     0.606850000000     0.0383003  
H102     H      0.432180000000     0.263020000000     0.606840000000     0.0383341  
H103     H      0.432170000000     0.263200000000     0.662460000000     0.0383462  
H104     H      0.038010000000     0.263440000000     0.662480000000     0.0383289  
H105     H      0.432250000000     0.416290000000     0.010330000000     0.0340142  
H106     H      0.037920000000     0.416330000000     0.507170000000     0.034955   
H107     H      0.037940000000     0.360310000000     0.507270000000     0.0386091  
H108     H      0.432250000000     0.360290000000     0.010180000000     0.038116   
H109     H      0.037950000000     0.163480000000     0.012030000000     0.0381271  
H110     H      0.432260000000     0.163490000000     0.509120000000     0.0386042  
H111     H      0.432260000000     0.107480000000     0.508950000000     0.0347302  
H112     H      0.037930000000     0.107460000000     0.012100000000     0.0341938  
H113     H      0.233880000000     0.961580000000     0.412490000000     0.0380211  
H114     H      0.236050000000     0.561100000000     0.412380000000     0.0381171  
H115     H      0.236010000000     0.561080000000     0.356850000000     0.0381432  
H116     H      0.233930000000     0.961550000000     0.356760000000     0.0379967  
H117     H      0.233890000000     0.562200000000     0.106740000000     0.0381017  
H118     H      0.236040000000     0.962680000000     0.106860000000     0.0377795  
H119     H      0.236010000000     0.962700000000     0.162380000000     0.0378696  
H120     H      0.233950000000     0.562230000000     0.162470000000     0.0381414  
H121     H      0.070340000000     0.964490000000     0.246190000000     0.0288177  
H122     H      0.070360000000     0.559290000000     0.273060000000     0.0287806  
H123     H      0.130460000000     0.560070000000     0.272000000000     0.0363851  
H124     H      0.130450000000     0.963720000000     0.247240000000     0.0362795  
H125     H      0.399560000000     0.964300000000     0.246850000000     0.0288796  
H126     H      0.399570000000     0.559470000000     0.272410000000     0.0288369  
H127     H      0.339480000000     0.560230000000     0.271360000000     0.0363943  
H128     H      0.339480000000     0.963550000000     0.247880000000     0.0362893  
H129     H      0.070280000000     0.964850000000     0.024250000000     0.0285805  
H130     H      0.070280000000     0.558930000000     0.495000000000     0.0286265  
H131     H      0.130420000000     0.559740000000     0.496030000000     0.0364282  
H132     H      0.130420000000     0.964040000000     0.023210000000     0.0360791  
H133     H      0.339480000000     0.560000000000     0.022230000000     0.0361859  
H134     H      0.339480000000     0.963770000000     0.497010000000     0.0363747  
H135     H      0.399580000000     0.964540000000     0.496010000000     0.0287866  
H136     H      0.399580000000     0.559240000000     0.023240000000     0.0286806  
H137     H      0.037700000000     0.013910000000     0.412670000000     0.0382692  
H138     H      0.432170000000     0.512090000000     0.412650000000     0.0390931  
H139     H      0.432180000000     0.512470000000     0.356580000000     0.0391066  
H140     H      0.037700000000     0.014190000000     0.356600000000     0.0383228  
H141     H      0.432170000000     0.511680000000     0.106610000000     0.0390789  
H142     H      0.037690000000     0.009880000000     0.106590000000     0.0381115  
H143     H      0.037700000000     0.009600000000     0.162660000000     0.0381402  
H144     H      0.432180000000     0.511300000000     0.162670000000     0.0390934  
H145     H      0.932190000000     0.860280000000     0.261400000000     0.0387844  
H146     H      0.537930000000     0.860320000000     0.261640000000     0.0387893  
H147     H      0.537900000000     0.916330000000     0.261990000000     0.0352784  
H148     H      0.932180000000     0.916280000000     0.261730000000     0.0351827  
H149     H      0.537930000000     0.663480000000     0.257660000000     0.0385898  
H150     H      0.932190000000     0.663490000000     0.257900000000     0.0385736  
H151     H      0.932180000000     0.607490000000     0.257540000000     0.0347227  
H152     H      0.537900000000     0.607470000000     0.257290000000     0.0347867  
H153     H      0.432180000000     0.760750000000     0.412480000000     0.0383584  
H154     H      0.038020000000     0.760530000000     0.412460000000     0.0383349  
H155     H      0.038010000000     0.760360000000     0.356830000000     0.038357   
H156     H      0.432170000000     0.760570000000     0.356850000000     0.0383683  
H157     H      0.038020000000     0.763270000000     0.106850000000     0.0382402  
H158     H      0.432180000000     0.763020000000     0.106840000000     0.0382536  
H159     H      0.432170000000     0.763200000000     0.162460000000     0.038335   
H160     H      0.038010000000     0.763440000000     0.162480000000     0.0383191  
H161     H      0.432250000000     0.916290000000     0.510330000000     0.0352147  
H162     H      0.037920000000     0.916330000000     0.007170000000     0.0350408  
H163     H      0.037940000000     0.860310000000     0.007270000000     0.0383395  
H164     H      0.432250000000     0.860280000000     0.510180000000     0.0387757  
H165     H      0.037950000000     0.663480000000     0.512030000000     0.0385902  
H166     H      0.432260000000     0.663490000000     0.009120000000     0.0381628  
H167     H      0.432260000000     0.607490000000     0.008950000000     0.0343656  
H168     H      0.037930000000     0.607460000000     0.512100000000     0.0349201  
H169     H      0.233880000000     0.961580000000     0.912490000000     0.0386125  
H170     H      0.236050000000     0.561100000000     0.912380000000     0.0387065  
H171     H      0.236010000000     0.561080000000     0.856850000000     0.0383765  
H172     H      0.233930000000     0.961550000000     0.856760000000     0.0382433  
H173     H      0.233890000000     0.562210000000     0.606740000000     0.0381987  
H174     H      0.236040000000     0.962680000000     0.606860000000     0.0378824  
H175     H      0.236010000000     0.962700000000     0.662380000000     0.0379251  
H176     H      0.233950000000     0.562230000000     0.662470000000     0.0381856  
H177     H      0.070340000000     0.964490000000     0.746190000000     0.0288297  
H178     H      0.070360000000     0.559290000000     0.773060000000     0.0288547  
H179     H      0.130460000000     0.560070000000     0.772000000000     0.0364748  
H180     H      0.130450000000     0.963720000000     0.747240000000     0.0363344  
H181     H      0.399560000000     0.964300000000     0.746850000000     0.0288949  
H182     H      0.399570000000     0.559470000000     0.772400000000     0.0289138  
H183     H      0.339480000000     0.560230000000     0.771360000000     0.0364907  
H184     H      0.339480000000     0.963550000000     0.747880000000     0.0363269  
H185     H      0.070280000000     0.964850000000     0.524250000000     0.0286584  
H186     H      0.070280000000     0.558930000000     0.995000000000     0.0331866  
H187     H      0.130420000000     0.559740000000     0.996030000000     0.0407971  
H188     H      0.130420000000     0.964050000000     0.523210000000     0.036355   
H189     H      0.339490000000     0.560000000000     0.522230000000     0.0364725  
H190     H      0.339480000000     0.963770000000     0.997010000000     0.0407409  
H191     H      0.399580000000     0.964540000000     0.996010000000     0.0333581  
H192     H      0.399580000000     0.559240000000     0.523240000000     0.0287501  
H193     H      0.037700000000     0.013910000000     0.912670000000     0.0388802  
H194     H      0.432170000000     0.512090000000     0.912650000000     0.0397235  
H195     H      0.432180000000     0.512470000000     0.856590000000     0.0393139  
H196     H      0.037700000000     0.014190000000     0.856600000000     0.0385414  
H197     H      0.432170000000     0.511680000000     0.606610000000     0.0390588  
H198     H      0.037690000000     0.009880000000     0.606580000000     0.0381051  
H199     H      0.037700000000     0.009600000000     0.662660000000     0.0381319  
H200     H      0.432180000000     0.511300000000     0.662670000000     0.0390872  
H201     H      0.932190000000     0.860280000000     0.761400000000     0.0388713  
H202     H      0.537930000000     0.860320000000     0.761640000000     0.0388659  
H203     H      0.537900000000     0.916330000000     0.761990000000     0.0353305  
H204     H      0.932180000000     0.916290000000     0.761730000000     0.035244   
H205     H      0.537930000000     0.663480000000     0.757660000000     0.0386847  
H206     H      0.932200000000     0.663490000000     0.757900000000     0.0386625  
H207     H      0.932190000000     0.607490000000     0.757540000000     0.0347762  
H208     H      0.537900000000     0.607470000000     0.757290000000     0.0348275  
H209     H      0.432180000000     0.760750000000     0.912470000000     0.0389742  
H210     H      0.038020000000     0.760530000000     0.912460000000     0.0389672  
H211     H      0.038010000000     0.760360000000     0.856830000000     0.0386201  
H212     H      0.432170000000     0.760570000000     0.856850000000     0.0386423  
H213     H      0.038020000000     0.763270000000     0.606850000000     0.0383304  
H214     H      0.432180000000     0.763020000000     0.606840000000     0.03836    
H215     H      0.432170000000     0.763200000000     0.662460000000     0.0383827  
H216     H      0.038010000000     0.763440000000     0.662480000000     0.0383638  
H217     H      0.432250000000     0.916290000000     0.010330000000     0.0344696  
H218     H      0.037920000000     0.916330000000     0.507170000000     0.0353888  
H219     H      0.037940000000     0.860310000000     0.507270000000     0.0387893  
H220     H      0.432250000000     0.860290000000     0.010180000000     0.0382946  
H221     H      0.037950000000     0.663480000000     0.012030000000     0.0381241  
H222     H      0.432260000000     0.663490000000     0.509120000000     0.0386077  
H223     H      0.432260000000     0.607480000000     0.508950000000     0.0347296  
H224     H      0.037930000000     0.607460000000     0.012100000000     0.0342023  
H225     H      0.733880000000     0.461580000000     0.412490000000     0.0382477  
H226     H      0.736050000000     0.061100000000     0.412380000000     0.0382025  
H227     H      0.736010000000     0.061080000000     0.356850000000     0.0382322  
H228     H      0.733930000000     0.461550000000     0.356760000000     0.0382127  
H229     H      0.733890000000     0.062210000000     0.106740000000     0.0381715  
H230     H      0.736040000000     0.462680000000     0.106860000000     0.0380223  
H231     H      0.736010000000     0.462700000000     0.162380000000     0.0381168  
H232     H      0.733950000000     0.062230000000     0.162470000000     0.0382206  
H233     H      0.570340000000     0.464490000000     0.246180000000     0.0287888  
H234     H      0.570360000000     0.059290000000     0.273060000000     0.0288594  
H235     H      0.630460000000     0.060070000000     0.272000000000     0.0365017  
H236     H      0.630450000000     0.463720000000     0.247230000000     0.0363635  
H237     H      0.899560000000     0.464300000000     0.246850000000     0.0288685  
H238     H      0.899570000000     0.059470000000     0.272410000000     0.028919   
H239     H      0.839480000000     0.060220000000     0.271370000000     0.0365258  
H240     H      0.839480000000     0.463550000000     0.247880000000     0.036397   
H241     H      0.570280000000     0.464850000000     0.024250000000     0.0285451  
H242     H      0.570290000000     0.058930000000     0.495000000000     0.0287029  
H243     H      0.630420000000     0.059740000000     0.496030000000     0.0365475  
H244     H      0.630420000000     0.464040000000     0.023210000000     0.0361714  
H245     H      0.839480000000     0.060000000000     0.022230000000     0.0363081  
H246     H      0.839480000000     0.463770000000     0.497010000000     0.0364855  
H247     H      0.899570000000     0.464540000000     0.496010000000     0.0287689  
H248     H      0.899580000000     0.059240000000     0.023240000000     0.0287425  
H249     H      0.537700000000     0.513910000000     0.412670000000     0.039028   
H250     H      0.932170000000     0.012090000000     0.412650000000     0.0382334  
H251     H      0.932180000000     0.012470000000     0.356580000000     0.03835    
H252     H      0.537700000000     0.514190000000     0.356600000000     0.0390311  
H253     H      0.932170000000     0.011680000000     0.106610000000     0.0383291  
H254     H      0.537690000000     0.509880000000     0.106590000000     0.0389998  
H255     H      0.537700000000     0.509600000000     0.162660000000     0.0390299  
H256     H      0.932170000000     0.011300000000     0.162670000000     0.0382624  
H257     H      0.432190000000     0.360280000000     0.261400000000     0.0386073  
H258     H      0.037930000000     0.360320000000     0.261640000000     0.03859    
H259     H      0.037900000000     0.416330000000     0.261990000000     0.0348131  
H260     H      0.432180000000     0.416280000000     0.261730000000     0.0347265  
H261     H      0.037930000000     0.163480000000     0.257660000000     0.0385885  
H262     H      0.432200000000     0.163490000000     0.257900000000     0.038613   
H263     H      0.432190000000     0.107490000000     0.257540000000     0.0347107  
H264     H      0.037900000000     0.107470000000     0.257290000000     0.0347685  
H265     H      0.932180000000     0.260750000000     0.412480000000     0.0383222  
H266     H      0.538020000000     0.260530000000     0.412460000000     0.0383205  
H267     H      0.538010000000     0.260360000000     0.356830000000     0.0383405  
H268     H      0.932170000000     0.260570000000     0.356850000000     0.0383493  
H269     H      0.538020000000     0.263270000000     0.106850000000     0.0382226  
H270     H      0.932180000000     0.263020000000     0.106840000000     0.0382323  
H271     H      0.932170000000     0.263200000000     0.162460000000     0.0383106  
H272     H      0.538000000000     0.263440000000     0.162480000000     0.0383108  
H273     H      0.932250000000     0.416290000000     0.510330000000     0.0347639  
H274     H      0.537920000000     0.416330000000     0.007170000000     0.034599   
H275     H      0.537940000000     0.360310000000     0.007270000000     0.0381724  
H276     H      0.932250000000     0.360290000000     0.510180000000     0.0385994  
H277     H      0.537950000000     0.163480000000     0.512030000000     0.038596   
H278     H      0.932260000000     0.163490000000     0.009120000000     0.0381491  
H279     H      0.932260000000     0.107480000000     0.008950000000     0.0343832  
H280     H      0.537930000000     0.107460000000     0.512100000000     0.0349328  
H281     H      0.733880000000     0.461580000000     0.912490000000     0.038841   
H282     H      0.736050000000     0.061100000000     0.912380000000     0.0387905  
H283     H      0.736010000000     0.061080000000     0.856850000000     0.0384746  
H284     H      0.733930000000     0.461550000000     0.856760000000     0.0384547  
H285     H      0.733890000000     0.062210000000     0.606740000000     0.038276   
H286     H      0.736040000000     0.462680000000     0.606860000000     0.038123   
H287     H      0.736010000000     0.462700000000     0.662380000000     0.0381664  
H288     H      0.733950000000     0.062230000000     0.662470000000     0.0382696  
H289     H      0.570350000000     0.464500000000     0.746180000000     0.0288136  
H290     H      0.570360000000     0.059290000000     0.773060000000     0.0289202  
H291     H      0.630460000000     0.060070000000     0.772000000000     0.0365835  
H292     H      0.630450000000     0.463720000000     0.747240000000     0.0364326  
H293     H      0.899560000000     0.464300000000     0.746850000000     0.0288893  
H294     H      0.899570000000     0.059470000000     0.772410000000     0.0289879  
H295     H      0.839480000000     0.060220000000     0.771360000000     0.0366253  
H296     H      0.839480000000     0.463550000000     0.747880000000     0.0364489  
H297     H      0.570280000000     0.464850000000     0.524250000000     0.0286242  
H298     H      0.570290000000     0.058930000000     0.995010000000     0.0332645  
H299     H      0.630430000000     0.059740000000     0.996030000000     0.0409225  
H300     H      0.630420000000     0.464040000000     0.523210000000     0.0364472  
H301     H      0.839480000000     0.060000000000     0.522230000000     0.0365931  
H302     H      0.839480000000     0.463770000000     0.997010000000     0.0408635  
H303     H      0.899570000000     0.464540000000     0.996010000000     0.0333903  
H304     H      0.899580000000     0.059240000000     0.523240000000     0.0288481  
H305     H      0.537690000000     0.513910000000     0.912670000000     0.0396336  
H306     H      0.932170000000     0.012090000000     0.912650000000     0.0388825  
H307     H      0.932180000000     0.012470000000     0.856590000000     0.0385514  
H308     H      0.537700000000     0.514190000000     0.856600000000     0.039258   
H309     H      0.932170000000     0.011680000000     0.606610000000     0.0383098  
H310     H      0.537690000000     0.509880000000     0.606580000000     0.0389916  
H311     H      0.537700000000     0.509600000000     0.662660000000     0.0390318  
H312     H      0.932170000000     0.011300000000     0.662670000000     0.038246   
H313     H      0.432190000000     0.360280000000     0.761400000000     0.0386855  
H314     H      0.037930000000     0.360320000000     0.761640000000     0.0386741  
H315     H      0.037900000000     0.416330000000     0.761990000000     0.0348756  
H316     H      0.432180000000     0.416280000000     0.761740000000     0.0347855  
H317     H      0.037930000000     0.163480000000     0.757660000000     0.0386632  
H318     H      0.432190000000     0.163490000000     0.757900000000     0.0386759  
H319     H      0.432180000000     0.107490000000     0.757540000000     0.0347496  
H320     H      0.037900000000     0.107470000000     0.757290000000     0.0348131  
H321     H      0.932180000000     0.260750000000     0.912470000000     0.0389591  
H322     H      0.538010000000     0.260530000000     0.912460000000     0.0389676  
H323     H      0.538010000000     0.260360000000     0.856830000000     0.0385996  
H324     H      0.932170000000     0.260570000000     0.856850000000     0.0386119  
H325     H      0.538020000000     0.263270000000     0.606850000000     0.0383181  
H326     H      0.932180000000     0.263020000000     0.606840000000     0.0383281  
H327     H      0.932170000000     0.263200000000     0.662460000000     0.0383501  
H328     H      0.538010000000     0.263440000000     0.662480000000     0.0383411  
H329     H      0.932250000000     0.416290000000     0.010330000000     0.0340282  
H330     H      0.537920000000     0.416330000000     0.507170000000     0.0349677  
H331     H      0.537940000000     0.360310000000     0.507270000000     0.0386219  
H332     H      0.932250000000     0.360290000000     0.010180000000     0.0381182  
H333     H      0.537950000000     0.163480000000     0.012030000000     0.0381407  
H334     H      0.932260000000     0.163490000000     0.509120000000     0.0386368  
H335     H      0.932260000000     0.107480000000     0.508950000000     0.0347195  
H336     H      0.537930000000     0.107460000000     0.012100000000     0.0341988  
H337     H      0.733880000000     0.961580000000     0.412490000000     0.0380218  
H338     H      0.736050000000     0.561100000000     0.412380000000     0.0381179  
H339     H      0.736010000000     0.561080000000     0.356850000000     0.038144   
H340     H      0.733930000000     0.961550000000     0.356760000000     0.0379983  
H341     H      0.733890000000     0.562200000000     0.106740000000     0.0381026  
H342     H      0.736040000000     0.962680000000     0.106860000000     0.0377807  
H343     H      0.736010000000     0.962700000000     0.162380000000     0.0378707  
H344     H      0.733950000000     0.562230000000     0.162470000000     0.0381422  
H345     H      0.570350000000     0.964490000000     0.246190000000     0.0288082  
H346     H      0.570360000000     0.559290000000     0.273060000000     0.0287615  
H347     H      0.630460000000     0.560070000000     0.272000000000     0.0363828  
H348     H      0.630450000000     0.963720000000     0.247240000000     0.0362767  
H349     H      0.899560000000     0.964300000000     0.246850000000     0.0288785  
H350     H      0.899560000000     0.559470000000     0.272410000000     0.028834   
H351     H      0.839480000000     0.560230000000     0.271360000000     0.0363937  
H352     H      0.839480000000     0.963550000000     0.247880000000     0.0362895  
H353     H      0.570280000000     0.964850000000     0.024250000000     0.0285713  
H354     H      0.570280000000     0.558930000000     0.495000000000     0.0286214  
H355     H      0.630420000000     0.559740000000     0.496030000000     0.0364257  
H356     H      0.630420000000     0.964040000000     0.023210000000     0.0360762  
H357     H      0.839490000000     0.560000000000     0.022230000000     0.0361783  
H358     H      0.839480000000     0.963770000000     0.497010000000     0.0363739  
H359     H      0.899580000000     0.964540000000     0.496010000000     0.0287847  
H360     H      0.899580000000     0.559240000000     0.023240000000     0.0286807  
H361     H      0.537700000000     0.013910000000     0.412670000000     0.0382914  
H362     H      0.932170000000     0.512090000000     0.412650000000     0.0390947  
H363     H      0.932180000000     0.512470000000     0.356580000000     0.0391107  
H364     H      0.537700000000     0.014190000000     0.356600000000     0.0383338  
H365     H      0.932170000000     0.511680000000     0.106610000000     0.0390832  
H366     H      0.537690000000     0.009880000000     0.106590000000     0.038123   
H367     H      0.537700000000     0.009600000000     0.162660000000     0.0381521  
H368     H      0.932180000000     0.511300000000     0.162670000000     0.0390979  
H369     H      0.432190000000     0.860280000000     0.261400000000     0.0387859  
H370     H      0.037930000000     0.860320000000     0.261640000000     0.0387675  
H371     H      0.037900000000     0.916330000000     0.261990000000     0.0352655  
H372     H      0.432180000000     0.916280000000     0.261730000000     0.0351787  
H373     H      0.037930000000     0.663480000000     0.257660000000     0.0385945  
H374     H      0.432190000000     0.663490000000     0.257900000000     0.0385884  
H375     H      0.432180000000     0.607490000000     0.257540000000     0.0347106  
H376     H      0.037900000000     0.607470000000     0.257290000000     0.0347694  
H377     H      0.932180000000     0.760750000000     0.412480000000     0.0383521  
H378     H      0.538020000000     0.760530000000     0.412460000000     0.0383528  
H379     H      0.538010000000     0.760360000000     0.356830000000     0.0383699  
H380     H      0.932170000000     0.760570000000     0.356850000000     0.0383721  
H381     H      0.538020000000     0.763270000000     0.106850000000     0.0382532  
H382     H      0.932180000000     0.763020000000     0.106840000000     0.0382568  
H383     H      0.932170000000     0.763200000000     0.162460000000     0.0383381  
H384     H      0.538010000000     0.763440000000     0.162480000000     0.0383328  
H385     H      0.932250000000     0.916290000000     0.510330000000     0.0352076  
H386     H      0.537920000000     0.916330000000     0.007170000000     0.035053   
H387     H      0.537940000000     0.860310000000     0.007270000000     0.0383522  
H388     H      0.932250000000     0.860280000000     0.510180000000     0.0387835  
H389     H      0.537950000000     0.663480000000     0.512030000000     0.0386029  
H390     H      0.932260000000     0.663490000000     0.009120000000     0.0381664  
H391     H      0.932260000000     0.607490000000     0.008950000000     0.0343688  
H392     H      0.537930000000     0.607460000000     0.512100000000     0.034933   
H393     H      0.733880000000     0.961580000000     0.912490000000     0.038613   
H394     H      0.736050000000     0.561100000000     0.912380000000     0.0387073  
H395     H      0.736010000000     0.561080000000     0.856850000000     0.0383779  
H396     H      0.733930000000     0.961550000000     0.856760000000     0.0382441  
H397     H      0.733890000000     0.562210000000     0.606740000000     0.0381998  
H398     H      0.736040000000     0.962680000000     0.606860000000     0.0378835  
H399     H      0.736010000000     0.962700000000     0.662380000000     0.0379257  
H400     H      0.733950000000     0.562230000000     0.662470000000     0.0381869  
H401     H      0.570340000000     0.964490000000     0.746190000000     0.0288124  
H402     H      0.570360000000     0.559290000000     0.773060000000     0.0288561  
H403     H      0.630460000000     0.560070000000     0.772000000000     0.0364809  
H404     H      0.630450000000     0.963720000000     0.747240000000     0.0363235  
H405     H      0.899560000000     0.964300000000     0.746850000000     0.0288953  
H406     H      0.899570000000     0.559470000000     0.772400000000     0.0289128  
H407     H      0.839480000000     0.560230000000     0.771360000000     0.0364911  
H408     H      0.839480000000     0.963550000000     0.747880000000     0.0363268  
H409     H      0.570280000000     0.964850000000     0.524250000000     0.0286536  
H410     H      0.570280000000     0.558930000000     0.995000000000     0.0331749  
H411     H      0.630420000000     0.559740000000     0.996030000000     0.0407895  
H412     H      0.630420000000     0.964050000000     0.523210000000     0.0363543  
H413     H      0.839480000000     0.560000000000     0.522230000000     0.0364821  
H414     H      0.839480000000     0.963770000000     0.997010000000     0.0407406  
H415     H      0.899570000000     0.964540000000     0.996010000000     0.0333531  
H416     H      0.899580000000     0.559240000000     0.523240000000     0.0287556  
H417     H      0.537700000000     0.013910000000     0.912670000000     0.0389204  
H418     H      0.932170000000     0.512090000000     0.912650000000     0.0397296  
H419     H      0.932170000000     0.512470000000     0.856590000000     0.0393075  
H420     H      0.537700000000     0.014190000000     0.856600000000     0.0385365  
H421     H      0.932170000000     0.511680000000     0.606610000000     0.0390347  
H422     H      0.537690000000     0.009880000000     0.606580000000     0.0381176  
H423     H      0.537700000000     0.009600000000     0.662660000000     0.0381405  
H424     H      0.932180000000     0.511300000000     0.662670000000     0.039104   
H425     H      0.432190000000     0.860280000000     0.761400000000     0.0388682  
H426     H      0.037930000000     0.860320000000     0.761640000000     0.0388533  
H427     H      0.037900000000     0.916330000000     0.761990000000     0.0353208  
H428     H      0.432180000000     0.916290000000     0.761740000000     0.0352407  
H429     H      0.037930000000     0.663480000000     0.757660000000     0.038672   
H430     H      0.432200000000     0.663490000000     0.757900000000     0.0386593  
H431     H      0.432190000000     0.607490000000     0.757540000000     0.0347728  
H432     H      0.037900000000     0.607470000000     0.757290000000     0.0348146  
H433     H      0.932180000000     0.760750000000     0.912470000000     0.0389778  
H434     H      0.538020000000     0.760520000000     0.912460000000     0.0389772  
H435     H      0.538000000000     0.760360000000     0.856830000000     0.0386439  
H436     H      0.932170000000     0.760570000000     0.856850000000     0.0386454  
H437     H      0.538020000000     0.763270000000     0.606850000000     0.0383435  
H438     H      0.932180000000     0.763020000000     0.606840000000     0.0383626  
H439     H      0.932170000000     0.763200000000     0.662460000000     0.0383856  
H440     H      0.538010000000     0.763440000000     0.662480000000     0.0383768  
H441     H      0.932250000000     0.916290000000     0.010330000000     0.0344742  
H442     H      0.537920000000     0.916330000000     0.507170000000     0.0354233  
H443     H      0.537940000000     0.860310000000     0.507270000000     0.0387926  
H444     H      0.932250000000     0.860290000000     0.010180000000     0.0382978  
H445     H      0.537950000000     0.663480000000     0.012030000000     0.0381343  
H446     H      0.932260000000     0.663490000000     0.509120000000     0.0386101  
H447     H      0.932260000000     0.607480000000     0.508950000000     0.0347321  
H448     H      0.537920000000     0.607460000000     0.012100000000     0.0342247  
N1       N      0.234960000000     0.011340000000     0.416720000000    -0.179791   
N2       N      0.234970000000     0.011300000000     0.352520000000    -0.179801   
N3       N      0.234960000000     0.012440000000     0.102510000000    -0.179853   
N4       N      0.234970000000     0.012480000000     0.166710000000    -0.17983    
N5       N      0.066550000000     0.011890000000     0.259630000000    -0.240487   
N6       N      0.135130000000     0.011890000000     0.259620000000    -0.179126   
N7       N      0.403390000000     0.511890000000     0.259630000000    -0.237693   
N8       N      0.334800000000     0.511890000000     0.259620000000    -0.177128   
N9       N      0.066520000000     0.011890000000     0.009630000000    -0.240141   
N10      N      0.135100000000     0.011890000000     0.009620000000    -0.178553   
N11      N      0.334790000000     0.011890000000     0.509620000000    -0.179078   
N12      N      0.403390000000     0.511890000000     0.509630000000    -0.237618   
N13      N      0.484930000000     0.012920000000     0.417430000000    -0.18209    
N14      N      0.984940000000     0.513310000000     0.351820000000    -0.182021   
N15      N      0.984930000000     0.010860000000     0.101830000000    -0.182116   
N16      N      0.484940000000     0.510470000000     0.167440000000    -0.181953   
N17      N      0.485060000000     0.355840000000     0.261340000000    -0.174719   
N18      N      0.485040000000     0.420780000000     0.261690000000    -0.190669   
N19      N      0.985070000000     0.167940000000     0.257960000000    -0.174723   
N20      N      0.985040000000     0.103010000000     0.257590000000    -0.190482   
N21      N      0.485100000000     0.260750000000     0.416750000000    -0.177651   
N22      N      0.485090000000     0.260540000000     0.352550000000    -0.177689   
N23      N      0.485100000000     0.263030000000     0.102560000000    -0.177583   
N24      N      0.485090000000     0.263240000000     0.166760000000    -0.177677   
N25      N      0.485080000000     0.420770000000     0.508800000000    -0.190502   
N26      N      0.485100000000     0.355840000000     0.508770000000    -0.174763   
N27      N      0.985110000000     0.167940000000     0.510530000000    -0.17481    
N28      N      0.985090000000     0.103010000000     0.510480000000    -0.190472   
N29      N      0.234960000000     0.011340000000     0.916720000000    -0.179452   
N30      N      0.234970000000     0.011300000000     0.852520000000    -0.179747   
N31      N      0.234960000000     0.012440000000     0.602510000000    -0.17989    
N32      N      0.234970000000     0.012480000000     0.666710000000    -0.179784   
N33      N      0.066550000000     0.011890000000     0.759620000000    -0.240475   
N34      N      0.135130000000     0.011890000000     0.759620000000    -0.179105   
N35      N      0.403390000000     0.511890000000     0.759630000000    -0.237666   
N36      N      0.334800000000     0.511890000000     0.759620000000    -0.177113   
N37      N      0.066520000000     0.011890000000     0.509630000000    -0.24083    
N38      N      0.135100000000     0.011890000000     0.509620000000    -0.179033   
N39      N      0.334790000000     0.011890000000     0.009620000000    -0.178633   
N40      N      0.403400000000     0.511890000000     0.009630000000    -0.237001   
N41      N      0.484940000000     0.012920000000     0.917430000000    -0.181715   
N42      N      0.984940000000     0.513310000000     0.851820000000    -0.181987   
N43      N      0.984930000000     0.010860000000     0.601830000000    -0.182201   
N44      N      0.484940000000     0.510470000000     0.667440000000    -0.181952   
N45      N      0.485060000000     0.355840000000     0.761340000000    -0.174701   
N46      N      0.485040000000     0.420780000000     0.761690000000    -0.19065    
N47      N      0.985070000000     0.167940000000     0.757960000000    -0.17471    
N48      N      0.985040000000     0.103010000000     0.757580000000    -0.190476   
N49      N      0.485100000000     0.260750000000     0.916750000000    -0.17725    
N50      N      0.485090000000     0.260540000000     0.852550000000    -0.177647   
N51      N      0.485100000000     0.263030000000     0.602560000000    -0.177614   
N52      N      0.485090000000     0.263240000000     0.666760000000    -0.177696   
N53      N      0.485080000000     0.420770000000     0.008800000000    -0.190596   
N54      N      0.485100000000     0.355840000000     0.008770000000    -0.174855   
N55      N      0.985100000000     0.167940000000     0.010530000000    -0.174932   
N56      N      0.985090000000     0.103010000000     0.010480000000    -0.190549   
N57      N      0.234960000000     0.511340000000     0.416720000000    -0.177733   
N58      N      0.234970000000     0.511300000000     0.352520000000    -0.177744   
N59      N      0.234960000000     0.512440000000     0.102510000000    -0.177787   
N60      N      0.234970000000     0.512480000000     0.166710000000    -0.177771   
N61      N      0.066550000000     0.511890000000     0.259630000000    -0.237805   
N62      N      0.135130000000     0.511890000000     0.259620000000    -0.177196   
N63      N      0.403390000000     0.011890000000     0.259630000000    -0.240352   
N64      N      0.334800000000     0.011890000000     0.259620000000    -0.179121   
N65      N      0.066520000000     0.511890000000     0.009630000000    -0.237464   
N66      N      0.135100000000     0.511890000000     0.009620000000    -0.176567   
N67      N      0.334790000000     0.511890000000     0.509620000000    -0.177063   
N68      N      0.403400000000     0.011890000000     0.509630000000    -0.240388   
N69      N      0.484930000000     0.512920000000     0.417430000000    -0.181938   
N70      N      0.984940000000     0.013310000000     0.351820000000    -0.182184   
N71      N      0.984930000000     0.510860000000     0.101830000000    -0.181973   
N72      N      0.484940000000     0.010470000000     0.167440000000    -0.182115   
N73      N      0.485060000000     0.855840000000     0.261340000000    -0.174628   
N74      N      0.485040000000     0.920780000000     0.261690000000    -0.190201   
N75      N      0.985060000000     0.667940000000     0.257960000000    -0.174737   
N76      N      0.985040000000     0.603010000000     0.257590000000    -0.190625   
N77      N      0.485100000000     0.760750000000     0.416750000000    -0.177595   
N78      N      0.485090000000     0.760540000000     0.352550000000    -0.177686   
N79      N      0.485100000000     0.763030000000     0.102560000000    -0.177617   
N80      N      0.485090000000     0.763240000000     0.166760000000    -0.177674   
N81      N      0.485080000000     0.920770000000     0.508800000000    -0.190036   
N82      N      0.485100000000     0.855840000000     0.508770000000    -0.17478    
N83      N      0.985100000000     0.667940000000     0.510530000000    -0.174816   
N84      N      0.985090000000     0.603010000000     0.510480000000    -0.190614   
N85      N      0.234960000000     0.511340000000     0.916720000000    -0.177398   
N86      N      0.234970000000     0.511300000000     0.852520000000    -0.177747   
N87      N      0.234960000000     0.512440000000     0.602510000000    -0.177828   
N88      N      0.234970000000     0.512480000000     0.666710000000    -0.177774   
N89      N      0.066550000000     0.511890000000     0.759620000000    -0.237798   
N90      N      0.135130000000     0.511890000000     0.759620000000    -0.17718    
N91      N      0.403390000000     0.011890000000     0.759630000000    -0.240364   
N92      N      0.334800000000     0.011890000000     0.759620000000    -0.17911    
N93      N      0.066520000000     0.511890000000     0.509630000000    -0.238159   
N94      N      0.135100000000     0.511890000000     0.509620000000    -0.176995   
N95      N      0.334790000000     0.511890000000     0.009620000000    -0.176639   
N96      N      0.403390000000     0.011890000000     0.009630000000    -0.239594   
N97      N      0.484930000000     0.512920000000     0.917430000000    -0.181572   
N98      N      0.984940000000     0.013310000000     0.851820000000    -0.182145   
N99      N      0.984930000000     0.510860000000     0.601830000000    -0.182092   
N100     N      0.484940000000     0.010470000000     0.667440000000    -0.182172   
N101     N      0.485060000000     0.855840000000     0.761340000000    -0.174646   
N102     N      0.485040000000     0.920770000000     0.761690000000    -0.190111   
N103     N      0.985060000000     0.667950000000     0.757960000000    -0.174823   
N104     N      0.985040000000     0.603010000000     0.757580000000    -0.190614   
N105     N      0.485100000000     0.760750000000     0.916750000000    -0.177296   
N106     N      0.485090000000     0.760550000000     0.852550000000    -0.177626   
N107     N      0.485100000000     0.763030000000     0.602560000000    -0.17765    
N108     N      0.485090000000     0.763240000000     0.666760000000    -0.17768    
N109     N      0.485080000000     0.920770000000     0.008800000000    -0.190132   
N110     N      0.485100000000     0.855840000000     0.008770000000    -0.174804   
N111     N      0.985100000000     0.667940000000     0.010530000000    -0.174916   
N112     N      0.985090000000     0.603010000000     0.010480000000    -0.190697   
N113     N      0.734960000000     0.011340000000     0.416720000000    -0.179791   
N114     N      0.734970000000     0.011300000000     0.352520000000    -0.179799   
N115     N      0.734960000000     0.012440000000     0.102510000000    -0.179852   
N116     N      0.734970000000     0.012480000000     0.166710000000    -0.179829   
N117     N      0.566550000000     0.011890000000     0.259630000000    -0.240476   
N118     N      0.635130000000     0.011890000000     0.259620000000    -0.179136   
N119     N      0.903390000000     0.511890000000     0.259630000000    -0.237653   
N120     N      0.834800000000     0.511890000000     0.259620000000    -0.17713    
N121     N      0.566520000000     0.011890000000     0.009630000000    -0.240152   
N122     N      0.635100000000     0.011890000000     0.009620000000    -0.178562   
N123     N      0.834790000000     0.011890000000     0.509620000000    -0.179077   
N124     N      0.903390000000     0.511890000000     0.509630000000    -0.237597   
N125     N      0.984930000000     0.012920000000     0.417430000000    -0.182214   
N126     N      0.484940000000     0.513310000000     0.351820000000    -0.181959   
N127     N      0.484930000000     0.010860000000     0.101830000000    -0.182043   
N128     N      0.984940000000     0.510470000000     0.167440000000    -0.182024   
N129     N      0.985060000000     0.355840000000     0.261340000000    -0.174795   
N130     N      0.985040000000     0.420780000000     0.261690000000    -0.190737   
N131     N      0.485070000000     0.167940000000     0.257960000000    -0.174648   
N132     N      0.485040000000     0.103010000000     0.257590000000    -0.190409   
N133     N      0.985100000000     0.260750000000     0.416750000000    -0.177726   
N134     N      0.985090000000     0.260540000000     0.352550000000    -0.177764   
N135     N      0.985100000000     0.263030000000     0.102560000000    -0.177655   
N136     N      0.985090000000     0.263240000000     0.166760000000    -0.177757   
N137     N      0.985080000000     0.420770000000     0.508800000000    -0.190575   
N138     N      0.985100000000     0.355840000000     0.508770000000    -0.174839   
N139     N      0.485110000000     0.167940000000     0.510530000000    -0.174765   
N140     N      0.485090000000     0.103010000000     0.510480000000    -0.190389   
N141     N      0.734960000000     0.011340000000     0.916720000000    -0.179452   
N142     N      0.734970000000     0.011300000000     0.852520000000    -0.179746   
N143     N      0.734960000000     0.012440000000     0.602510000000    -0.179888   
N144     N      0.734970000000     0.012480000000     0.666710000000    -0.179784   
N145     N      0.566550000000     0.011890000000     0.759620000000    -0.240587   
N146     N      0.635130000000     0.011890000000     0.759620000000    -0.179177   
N147     N      0.903390000000     0.511890000000     0.759630000000    -0.237644   
N148     N      0.834800000000     0.511890000000     0.759620000000    -0.177113   
N149     N      0.566520000000     0.011890000000     0.509630000000    -0.240814   
N150     N      0.635100000000     0.011890000000     0.509620000000    -0.179039   
N151     N      0.834790000000     0.011890000000     0.009620000000    -0.178631   
N152     N      0.903400000000     0.511890000000     0.009630000000    -0.236973   
N153     N      0.984940000000     0.012920000000     0.917430000000    -0.181819   
N154     N      0.484940000000     0.513310000000     0.851820000000    -0.181909   
N155     N      0.484930000000     0.010860000000     0.601830000000    -0.182125   
N156     N      0.984940000000     0.510470000000     0.667440000000    -0.182018   
N157     N      0.985060000000     0.355840000000     0.761350000000    -0.174775   
N158     N      0.985040000000     0.420780000000     0.761690000000    -0.190723   
N159     N      0.485070000000     0.167940000000     0.757960000000    -0.174642   
N160     N      0.485040000000     0.103010000000     0.757580000000    -0.19038    
N161     N      0.985100000000     0.260750000000     0.916750000000    -0.17733    
N162     N      0.985090000000     0.260540000000     0.852550000000    -0.177719   
N163     N      0.985100000000     0.263030000000     0.602560000000    -0.177735   
N164     N      0.985090000000     0.263240000000     0.666760000000    -0.177769   
N165     N      0.985080000000     0.420770000000     0.008800000000    -0.190613   
N166     N      0.985100000000     0.355840000000     0.008770000000    -0.174933   
N167     N      0.485100000000     0.167940000000     0.010530000000    -0.174824   
N168     N      0.485090000000     0.103010000000     0.010480000000    -0.190483   
N169     N      0.734960000000     0.511340000000     0.416720000000    -0.177733   
N170     N      0.734970000000     0.511300000000     0.352520000000    -0.177744   
N171     N      0.734960000000     0.512440000000     0.102510000000    -0.177785   
N172     N      0.734970000000     0.512480000000     0.166710000000    -0.177772   
N173     N      0.566550000000     0.511890000000     0.259630000000    -0.237917   
N174     N      0.635130000000     0.511890000000     0.259620000000    -0.177189   
N175     N      0.903390000000     0.011890000000     0.259630000000    -0.240331   
N176     N      0.834800000000     0.011890000000     0.259620000000    -0.179121   
N177     N      0.566520000000     0.511890000000     0.009630000000    -0.237463   
N178     N      0.635100000000     0.511890000000     0.009620000000    -0.17656    
N179     N      0.834790000000     0.511890000000     0.509620000000    -0.177064   
N180     N      0.903400000000     0.011890000000     0.509630000000    -0.240364   
N181     N      0.984930000000     0.512920000000     0.417430000000    -0.182045   
N182     N      0.484940000000     0.013310000000     0.351820000000    -0.18211    
N183     N      0.484930000000     0.510860000000     0.101830000000    -0.181899   
N184     N      0.984940000000     0.010470000000     0.167440000000    -0.18219    
N185     N      0.985060000000     0.855840000000     0.261340000000    -0.174748   
N186     N      0.985040000000     0.920780000000     0.261690000000    -0.190272   
N187     N      0.485070000000     0.667940000000     0.257960000000    -0.17466    
N188     N      0.485040000000     0.603010000000     0.257590000000    -0.190558   
N189     N      0.985100000000     0.760750000000     0.416750000000    -0.177717   
N190     N      0.985090000000     0.760540000000     0.352550000000    -0.17776    
N191     N      0.985100000000     0.763030000000     0.102560000000    -0.177692   
N192     N      0.985090000000     0.763240000000     0.166760000000    -0.17775    
N193     N      0.985090000000     0.920770000000     0.508800000000    -0.190143   
N194     N      0.985100000000     0.855840000000     0.508770000000    -0.174847   
N195     N      0.485100000000     0.667940000000     0.510530000000    -0.17474    
N196     N      0.485090000000     0.603010000000     0.510480000000    -0.190538   
N197     N      0.734960000000     0.511340000000     0.916720000000    -0.177398   
N198     N      0.734970000000     0.511300000000     0.852520000000    -0.177746   
N199     N      0.734960000000     0.512440000000     0.602510000000    -0.177828   
N200     N      0.734970000000     0.512480000000     0.666710000000    -0.177773   
N201     N      0.566550000000     0.511890000000     0.759620000000    -0.237784   
N202     N      0.635130000000     0.511890000000     0.759620000000    -0.177116   
N203     N      0.903390000000     0.011890000000     0.759630000000    -0.240329   
N204     N      0.834800000000     0.011890000000     0.759620000000    -0.17911    
N205     N      0.566520000000     0.511890000000     0.509630000000    -0.238151   
N206     N      0.635100000000     0.511890000000     0.509620000000    -0.176996   
N207     N      0.834790000000     0.511890000000     0.009620000000    -0.176639   
N208     N      0.903390000000     0.011890000000     0.009630000000    -0.239575   
N209     N      0.984930000000     0.512920000000     0.917430000000    -0.181649   
N210     N      0.484940000000     0.013310000000     0.851820000000    -0.182084   
N211     N      0.484930000000     0.510860000000     0.601830000000    -0.181986   
N212     N      0.984940000000     0.010470000000     0.667440000000    -0.182243   
N213     N      0.985060000000     0.855840000000     0.761350000000    -0.17472    
N214     N      0.985040000000     0.920770000000     0.761690000000    -0.190179   
N215     N      0.485060000000     0.667950000000     0.757960000000    -0.174748   
N216     N      0.485040000000     0.603010000000     0.757580000000    -0.190541   
N217     N      0.985100000000     0.760750000000     0.916750000000    -0.177368   
N218     N      0.985090000000     0.760550000000     0.852550000000    -0.177706   
N219     N      0.985100000000     0.763030000000     0.602560000000    -0.177726   
N220     N      0.985090000000     0.763240000000     0.666760000000    -0.177754   
N221     N      0.985080000000     0.920770000000     0.008800000000    -0.190202   
N222     N      0.985100000000     0.855840000000     0.008770000000    -0.17488    
N223     N      0.485100000000     0.667940000000     0.010530000000    -0.174843   
N224     N      0.485090000000     0.603010000000     0.010480000000    -0.190621   
O1       O      0.012670000000     0.261210000000     0.463060000000    -0.401964   
O2       O      0.012670000000     0.262570000000     0.056250000000    -0.401444   
O3       O      0.012660000000     0.214750000000     0.010340000000    -0.396707   
O4       O      0.012660000000     0.309040000000     0.508970000000    -0.396381   
O5       O      0.457560000000     0.309030000000     0.509240000000    -0.396677   
O6       O      0.457560000000     0.214740000000     0.010070000000    -0.396872   
O7       O      0.457540000000     0.262360000000     0.056250000000    -0.401756   
O8       O      0.457550000000     0.261410000000     0.463070000000    -0.402235   
O9       O      0.012640000000     0.261040000000     0.306240000000    -0.402093   
O10      O      0.012640000000     0.262750000000     0.213070000000    -0.401995   
O11      O      0.012620000000     0.309040000000     0.260540000000    -0.396308   
O12      O      0.012630000000     0.214750000000     0.258770000000    -0.396206   
O13      O      0.457520000000     0.214750000000     0.258800000000    -0.396486   
O14      O      0.457520000000     0.309030000000     0.260510000000    -0.396578   
O15      O      0.457520000000     0.262710000000     0.213070000000    -0.402215   
O16      O      0.457520000000     0.261070000000     0.306240000000    -0.402308   
O17      O      0.457940000000     0.467500000000     0.010140000000    -0.480298   
O18      O      0.457940000000     0.056280000000     0.509130000000    -0.478869   
O19      O      0.457650000000     0.011660000000     0.464550000000    -0.455439   
O20      O      0.457650000000     0.512120000000     0.054710000000    -0.454235   
O21      O      0.012210000000     0.010650000000     0.054690000000    -0.454653   
O22      O      0.012210000000     0.013140000000     0.464570000000    -0.455198   
O23      O      0.012220000000     0.056270000000     0.511110000000    -0.478601   
O24      O      0.012220000000     0.467520000000     0.008150000000    -0.47981    
O25      O      0.457870000000     0.467500000000     0.260810000000    -0.480028   
O26      O      0.457870000000     0.056280000000     0.258450000000    -0.478822   
O27      O      0.457650000000     0.010970000000     0.214570000000    -0.455606   
O28      O      0.457650000000     0.512800000000     0.304690000000    -0.455197   
O29      O      0.012240000000     0.013080000000     0.304690000000    -0.455252   
O30      O      0.012240000000     0.010710000000     0.214570000000    -0.455313   
O31      O      0.012190000000     0.056270000000     0.258220000000    -0.478665   
O32      O      0.012180000000     0.467520000000     0.261050000000    -0.480101   
O33      O      0.235930000000     0.486350000000     0.056320000000    -0.402163   
O34      O      0.233950000000     0.485620000000     0.463150000000    -0.401925   
O35      O      0.285070000000     0.485990000000     0.508520000000    -0.396397   
O36      O      0.184810000000     0.486000000000     0.010990000000    -0.396532   
O37      O      0.184820000000     0.037780000000     0.008250000000    -0.395385   
O38      O      0.285080000000     0.037790000000     0.510710000000    -0.394817   
O39      O      0.235940000000     0.037430000000     0.462920000000    -0.401021   
O40      O      0.233960000000     0.038160000000     0.056080000000    -0.399962   
O41      O      0.234850000000     0.485600000000     0.306000000000    -0.40131    
O42      O      0.235070000000     0.486340000000     0.212810000000    -0.403463   
O43      O      0.285090000000     0.485970000000     0.259070000000    -0.396701   
O44      O      0.184820000000     0.485980000000     0.258900000000    -0.396714   
O45      O      0.184830000000     0.037810000000     0.260340000000    -0.395149   
O46      O      0.285100000000     0.037810000000     0.260160000000    -0.395044   
O47      O      0.234860000000     0.038180000000     0.213240000000    -0.399772   
O48      O      0.235070000000     0.037450000000     0.306420000000    -0.401876   
O49      O      0.012670000000     0.261210000000     0.963060000000    -0.398636   
O50      O      0.012670000000     0.262570000000     0.556250000000    -0.402114   
O51      O      0.012660000000     0.214750000000     0.510340000000    -0.396425   
O52      O      0.012660000000     0.309040000000     0.008970000000    -0.39665    
O53      O      0.457560000000     0.309030000000     0.009240000000    -0.396964   
O54      O      0.457560000000     0.214740000000     0.510070000000    -0.396613   
O55      O      0.457540000000     0.262360000000     0.556250000000    -0.402192   
O56      O      0.457540000000     0.261410000000     0.963070000000    -0.398921   
O57      O      0.012640000000     0.261040000000     0.806240000000    -0.401923   
O58      O      0.012640000000     0.262750000000     0.713070000000    -0.402116   
O59      O      0.012620000000     0.309040000000     0.760540000000    -0.396272   
O60      O      0.012630000000     0.214750000000     0.758770000000    -0.396178   
O61      O      0.457520000000     0.214750000000     0.758800000000    -0.39645    
O62      O      0.457520000000     0.309030000000     0.760510000000    -0.396536   
O63      O      0.457520000000     0.262710000000     0.713070000000    -0.402322   
O64      O      0.457520000000     0.261070000000     0.806250000000    -0.402084   
O65      O      0.457940000000     0.467500000000     0.510140000000    -0.479926   
O66      O      0.457940000000     0.056280000000     0.009130000000    -0.478816   
O67      O      0.457650000000     0.011660000000     0.964550000000    -0.45199    
O68      O      0.457650000000     0.512110000000     0.554700000000    -0.455069   
O69      O      0.012210000000     0.010650000000     0.554690000000    -0.4554     
O70      O      0.012210000000     0.013140000000     0.964570000000    -0.45173    
O71      O      0.012220000000     0.056270000000     0.011110000000    -0.478944   
O72      O      0.012220000000     0.467520000000     0.508150000000    -0.479859   
O73      O      0.457870000000     0.467500000000     0.760810000000    -0.479988   
O74      O      0.457870000000     0.056280000000     0.758450000000    -0.478826   
O75      O      0.457660000000     0.010970000000     0.714570000000    -0.455802   
O76      O      0.457650000000     0.512800000000     0.804690000000    -0.454994   
O77      O      0.012240000000     0.013080000000     0.804690000000    -0.455079   
O78      O      0.012240000000     0.010710000000     0.714570000000    -0.455389   
O79      O      0.012190000000     0.056270000000     0.758220000000    -0.478653   
O80      O      0.012180000000     0.467520000000     0.761050000000    -0.480081   
O81      O      0.235930000000     0.486350000000     0.556320000000    -0.402565   
O82      O      0.233950000000     0.485620000000     0.963150000000    -0.398718   
O83      O      0.285070000000     0.485990000000     0.008520000000    -0.397067   
O84      O      0.184810000000     0.486000000000     0.510990000000    -0.396317   
O85      O      0.184820000000     0.037780000000     0.508250000000    -0.394772   
O86      O      0.285080000000     0.037790000000     0.010710000000    -0.395      
O87      O      0.235940000000     0.037430000000     0.962920000000    -0.397814   
O88      O      0.233960000000     0.038160000000     0.556080000000    -0.40046    
O89      O      0.234850000000     0.485600000000     0.806000000000    -0.401181   
O90      O      0.235070000000     0.486340000000     0.712810000000    -0.403661   
O91      O      0.285090000000     0.485970000000     0.759070000000    -0.396661   
O92      O      0.184820000000     0.485980000000     0.758900000000    -0.396673   
O93      O      0.184830000000     0.037810000000     0.760340000000    -0.39511    
O94      O      0.285100000000     0.037810000000     0.760160000000    -0.395005   
O95      O      0.234860000000     0.038180000000     0.713240000000    -0.399727   
O96      O      0.235070000000     0.037450000000     0.806420000000    -0.401764   
O97      O      0.012670000000     0.761210000000     0.463060000000    -0.401853   
O98      O      0.012670000000     0.762570000000     0.056250000000    -0.401385   
O99      O      0.012660000000     0.714740000000     0.010340000000    -0.39671    
O100     O      0.012660000000     0.809040000000     0.508970000000    -0.396223   
O101     O      0.457560000000     0.809030000000     0.509240000000    -0.396529   
O102     O      0.457560000000     0.714740000000     0.010070000000    -0.396941   
O103     O      0.457550000000     0.762360000000     0.056250000000    -0.401899   
O104     O      0.457540000000     0.761410000000     0.463070000000    -0.402173   
O105     O      0.012640000000     0.761040000000     0.306240000000    -0.402094   
O106     O      0.012640000000     0.762750000000     0.213070000000    -0.401994   
O107     O      0.012620000000     0.809040000000     0.260540000000    -0.396251   
O108     O      0.012630000000     0.714750000000     0.258770000000    -0.396253   
O109     O      0.457520000000     0.714750000000     0.258800000000    -0.396532   
O110     O      0.457520000000     0.809030000000     0.260510000000    -0.396473   
O111     O      0.457520000000     0.762710000000     0.213070000000    -0.402219   
O112     O      0.457520000000     0.761070000000     0.306240000000    -0.402314   
O113     O      0.457940000000     0.967500000000     0.010140000000    -0.475637   
O114     O      0.457940000000     0.556280000000     0.509120000000    -0.47992    
O115     O      0.457650000000     0.511660000000     0.464550000000    -0.455034   
O116     O      0.457650000000     0.012110000000     0.054710000000    -0.454481   
O117     O      0.012210000000     0.510650000000     0.054690000000    -0.454193   
O118     O      0.012210000000     0.513140000000     0.464570000000    -0.454969   
O119     O      0.012220000000     0.556270000000     0.511110000000    -0.4799     
O120     O      0.012220000000     0.967520000000     0.008150000000    -0.475238   
O121     O      0.457870000000     0.967500000000     0.260810000000    -0.475366   
O122     O      0.457870000000     0.556280000000     0.258450000000    -0.480015   
O123     O      0.457650000000     0.510980000000     0.214570000000    -0.455201   
O124     O      0.457660000000     0.012800000000     0.304690000000    -0.455492   
O125     O      0.012240000000     0.513080000000     0.304690000000    -0.454948   
O126     O      0.012240000000     0.510710000000     0.214570000000    -0.454872   
O127     O      0.012190000000     0.556270000000     0.258220000000    -0.479851   
O128     O      0.012180000000     0.967520000000     0.261050000000    -0.475464   
O129     O      0.235940000000     0.986350000000     0.056320000000    -0.396664   
O130     O      0.233950000000     0.985620000000     0.463150000000    -0.396529   
O131     O      0.285070000000     0.985990000000     0.508520000000    -0.390984   
O132     O      0.184810000000     0.986000000000     0.010990000000    -0.391111   
O133     O      0.184810000000     0.537780000000     0.008250000000    -0.396969   
O134     O      0.285080000000     0.537790000000     0.510710000000    -0.396446   
O135     O      0.235940000000     0.537430000000     0.462920000000    -0.402679   
O136     O      0.233950000000     0.538160000000     0.056080000000    -0.401506   
O137     O      0.234850000000     0.985600000000     0.306000000000    -0.395879   
O138     O      0.235070000000     0.986340000000     0.212810000000    -0.398097   
O139     O      0.285090000000     0.985970000000     0.259070000000    -0.391293   
O140     O      0.184820000000     0.985980000000     0.258900000000    -0.391378   
O141     O      0.184830000000     0.537810000000     0.260340000000    -0.396701   
O142     O      0.285100000000     0.537810000000     0.260160000000    -0.396671   
O143     O      0.234860000000     0.538180000000     0.213240000000    -0.401409   
O144     O      0.235070000000     0.537450000000     0.306420000000    -0.403565   
O145     O      0.012670000000     0.761210000000     0.963060000000    -0.398673   
O146     O      0.012670000000     0.762570000000     0.556250000000    -0.402001   
O147     O      0.012660000000     0.714750000000     0.510340000000    -0.396454   
O148     O      0.012660000000     0.809040000000     0.008970000000    -0.39656    
O149     O      0.457560000000     0.809030000000     0.009240000000    -0.396898   
O150     O      0.457560000000     0.714740000000     0.510070000000    -0.396638   
O151     O      0.457550000000     0.762360000000     0.556250000000    -0.402416   
O152     O      0.457550000000     0.761410000000     0.963070000000    -0.399071   
O153     O      0.012640000000     0.761040000000     0.806240000000    -0.401896   
O154     O      0.012640000000     0.762750000000     0.713070000000    -0.402087   
O155     O      0.012620000000     0.809040000000     0.760540000000    -0.39619    
O156     O      0.012630000000     0.714750000000     0.758770000000    -0.39628    
O157     O      0.457530000000     0.714750000000     0.758800000000    -0.396631   
O158     O      0.457520000000     0.809030000000     0.760510000000    -0.396449   
O159     O      0.457520000000     0.762710000000     0.713070000000    -0.402289   
O160     O      0.457520000000     0.761070000000     0.806250000000    -0.402053   
O161     O      0.457940000000     0.967500000000     0.510140000000    -0.475304   
O162     O      0.457940000000     0.556280000000     0.009130000000    -0.480037   
O163     O      0.457650000000     0.511660000000     0.964550000000    -0.451565   
O164     O      0.457650000000     0.012110000000     0.554700000000    -0.455318   
O165     O      0.012210000000     0.510650000000     0.554690000000    -0.454947   
O166     O      0.012210000000     0.513140000000     0.964570000000    -0.451501   
O167     O      0.012220000000     0.556270000000     0.011110000000    -0.480122   
O168     O      0.012220000000     0.967520000000     0.508150000000    -0.475213   
O169     O      0.457870000000     0.967500000000     0.760810000000    -0.47534    
O170     O      0.457870000000     0.556280000000     0.758450000000    -0.479982   
O171     O      0.457650000000     0.510980000000     0.714570000000    -0.455106   
O172     O      0.457660000000     0.012800000000     0.804690000000    -0.455531   
O173     O      0.012240000000     0.513080000000     0.804690000000    -0.454879   
O174     O      0.012240000000     0.510710000000     0.714570000000    -0.454995   
O175     O      0.012190000000     0.556270000000     0.758220000000    -0.479842   
O176     O      0.012180000000     0.967520000000     0.761050000000    -0.475414   
O177     O      0.235940000000     0.986350000000     0.556320000000    -0.397165   
O178     O      0.233950000000     0.985620000000     0.963150000000    -0.393355   
O179     O      0.285070000000     0.985990000000     0.008520000000    -0.391648   
O180     O      0.184810000000     0.986010000000     0.510990000000    -0.391073   
O181     O      0.184820000000     0.537780000000     0.508250000000    -0.396327   
O182     O      0.285080000000     0.537790000000     0.010710000000    -0.396615   
O183     O      0.235940000000     0.537430000000     0.962920000000    -0.399453   
O184     O      0.233950000000     0.538160000000     0.556080000000    -0.402114   
O185     O      0.234850000000     0.985600000000     0.806000000000    -0.395693   
O186     O      0.235070000000     0.986330000000     0.712810000000    -0.398042   
O187     O      0.285090000000     0.985970000000     0.759070000000    -0.391256   
O188     O      0.184820000000     0.985980000000     0.758900000000    -0.391339   
O189     O      0.184830000000     0.537810000000     0.760340000000    -0.396663   
O190     O      0.285100000000     0.537810000000     0.760160000000    -0.396632   
O191     O      0.234860000000     0.538180000000     0.713240000000    -0.401329   
O192     O      0.235070000000     0.537440000000     0.806420000000    -0.403611   
O193     O      0.512670000000     0.261210000000     0.463060000000    -0.402151   
O194     O      0.512670000000     0.262570000000     0.056250000000    -0.401542   
O195     O      0.512660000000     0.214750000000     0.010340000000    -0.396894   
O196     O      0.512660000000     0.309040000000     0.508970000000    -0.39657    
O197     O      0.957560000000     0.309030000000     0.509240000000    -0.396622   
O198     O      0.957560000000     0.214740000000     0.010070000000    -0.396817   
O199     O      0.957540000000     0.262360000000     0.056250000000    -0.401604   
O200     O      0.957550000000     0.261410000000     0.463070000000    -0.402181   
O201     O      0.512640000000     0.261040000000     0.306240000000    -0.402284   
O202     O      0.512640000000     0.262750000000     0.213070000000    -0.402185   
O203     O      0.512620000000     0.309040000000     0.260540000000    -0.396499   
O204     O      0.512630000000     0.214750000000     0.258770000000    -0.396396   
O205     O      0.957520000000     0.214750000000     0.258800000000    -0.396428   
O206     O      0.957520000000     0.309030000000     0.260510000000    -0.39652    
O207     O      0.957520000000     0.262710000000     0.213070000000    -0.402156   
O208     O      0.957520000000     0.261070000000     0.306240000000    -0.402249   
O209     O      0.957930000000     0.467500000000     0.010140000000    -0.480068   
O210     O      0.957940000000     0.056280000000     0.509130000000    -0.478808   
O211     O      0.957650000000     0.011660000000     0.464550000000    -0.45544    
O212     O      0.957650000000     0.512120000000     0.054710000000    -0.454173   
O213     O      0.512210000000     0.010650000000     0.054690000000    -0.454878   
O214     O      0.512220000000     0.013140000000     0.464570000000    -0.45525    
O215     O      0.512220000000     0.056270000000     0.511110000000    -0.478807   
O216     O      0.512220000000     0.467520000000     0.008150000000    -0.480087   
O217     O      0.957870000000     0.467500000000     0.260810000000    -0.479947   
O218     O      0.957870000000     0.056280000000     0.258450000000    -0.478757   
O219     O      0.957650000000     0.010970000000     0.214570000000    -0.455546   
O220     O      0.957650000000     0.512800000000     0.304690000000    -0.45502    
O221     O      0.512240000000     0.013080000000     0.304690000000    -0.455458   
O222     O      0.512240000000     0.010710000000     0.214570000000    -0.455519   
O223     O      0.512190000000     0.056270000000     0.258220000000    -0.478875   
O224     O      0.512180000000     0.467520000000     0.261050000000    -0.480321   
O225     O      0.735940000000     0.486350000000     0.056320000000    -0.402153   
O226     O      0.733950000000     0.485620000000     0.463150000000    -0.401924   
O227     O      0.785070000000     0.485990000000     0.508520000000    -0.396384   
O228     O      0.684810000000     0.486000000000     0.010990000000    -0.396512   
O229     O      0.684810000000     0.037780000000     0.008250000000    -0.395363   
O230     O      0.785080000000     0.037790000000     0.510710000000    -0.39481    
O231     O      0.735940000000     0.037430000000     0.462920000000    -0.401008   
O232     O      0.733960000000     0.038160000000     0.056080000000    -0.39995    
O233     O      0.734850000000     0.485600000000     0.306000000000    -0.40132    
O234     O      0.735070000000     0.486340000000     0.212810000000    -0.403473   
O235     O      0.785090000000     0.485970000000     0.259070000000    -0.396718   
O236     O      0.684830000000     0.485980000000     0.258900000000    -0.396739   
O237     O      0.684830000000     0.037810000000     0.260340000000    -0.39515    
O238     O      0.785100000000     0.037810000000     0.260160000000    -0.395043   
O239     O      0.734860000000     0.038180000000     0.213240000000    -0.399771   
O240     O      0.735070000000     0.037450000000     0.306420000000    -0.401875   
O241     O      0.512670000000     0.261210000000     0.963060000000    -0.398822   
O242     O      0.512670000000     0.262570000000     0.556250000000    -0.402249   
O243     O      0.512660000000     0.214750000000     0.510340000000    -0.396616   
O244     O      0.512660000000     0.309040000000     0.008970000000    -0.396839   
O245     O      0.957560000000     0.309030000000     0.009240000000    -0.396905   
O246     O      0.957560000000     0.214740000000     0.510070000000    -0.396555   
O247     O      0.957550000000     0.262360000000     0.556250000000    -0.402281   
O248     O      0.957540000000     0.261410000000     0.963070000000    -0.398859   
O249     O      0.512640000000     0.261040000000     0.806240000000    -0.402114   
O250     O      0.512640000000     0.262750000000     0.713070000000    -0.402306   
O251     O      0.512620000000     0.309040000000     0.760540000000    -0.396463   
O252     O      0.512630000000     0.214750000000     0.758770000000    -0.39637    
O253     O      0.957520000000     0.214750000000     0.758800000000    -0.396392   
O254     O      0.957520000000     0.309030000000     0.760510000000    -0.396477   
O255     O      0.957520000000     0.262710000000     0.713070000000    -0.402263   
O256     O      0.957520000000     0.261070000000     0.806250000000    -0.402024   
O257     O      0.957940000000     0.467500000000     0.510140000000    -0.479863   
O258     O      0.957940000000     0.056280000000     0.009130000000    -0.478786   
O259     O      0.957650000000     0.011660000000     0.964550000000    -0.451932   
O260     O      0.957650000000     0.512110000000     0.554700000000    -0.455      
O261     O      0.512210000000     0.010650000000     0.554690000000    -0.455601   
O262     O      0.512210000000     0.013140000000     0.964570000000    -0.451952   
O263     O      0.512220000000     0.056260000000     0.011110000000    -0.479214   
O264     O      0.512220000000     0.467520000000     0.508150000000    -0.480068   
O265     O      0.957870000000     0.467500000000     0.760810000000    -0.479923   
O266     O      0.957870000000     0.056280000000     0.758450000000    -0.478749   
O267     O      0.957660000000     0.010970000000     0.714570000000    -0.45573    
O268     O      0.957650000000     0.512800000000     0.804690000000    -0.454934   
O269     O      0.512240000000     0.013080000000     0.804690000000    -0.455299   
O270     O      0.512240000000     0.010710000000     0.714570000000    -0.455608   
O271     O      0.512190000000     0.056270000000     0.758220000000    -0.478871   
O272     O      0.512180000000     0.467520000000     0.761050000000    -0.480289   
O273     O      0.735940000000     0.486350000000     0.556320000000    -0.402558   
O274     O      0.733950000000     0.485620000000     0.963150000000    -0.398715   
O275     O      0.785070000000     0.485990000000     0.008520000000    -0.397057   
O276     O      0.684810000000     0.486000000000     0.510990000000    -0.396329   
O277     O      0.684810000000     0.037780000000     0.508250000000    -0.394735   
O278     O      0.785080000000     0.037790000000     0.010710000000    -0.394981   
O279     O      0.735940000000     0.037430000000     0.962920000000    -0.397802   
O280     O      0.733950000000     0.038160000000     0.556080000000    -0.400442   
O281     O      0.734850000000     0.485600000000     0.806000000000    -0.40118    
O282     O      0.735070000000     0.486340000000     0.712810000000    -0.403661   
O283     O      0.785090000000     0.485970000000     0.759070000000    -0.39666    
O284     O      0.684820000000     0.485980000000     0.758900000000    -0.396751   
O285     O      0.684830000000     0.037810000000     0.760340000000    -0.395036   
O286     O      0.785100000000     0.037810000000     0.760160000000    -0.395004   
O287     O      0.734860000000     0.038180000000     0.713240000000    -0.399726   
O288     O      0.735070000000     0.037450000000     0.806420000000    -0.401763   
O289     O      0.512670000000     0.761210000000     0.463060000000    -0.401987   
O290     O      0.512670000000     0.762570000000     0.056250000000    -0.401575   
O291     O      0.512660000000     0.714740000000     0.010340000000    -0.396901   
O292     O      0.512660000000     0.809040000000     0.508970000000    -0.396412   
O293     O      0.957560000000     0.809030000000     0.509240000000    -0.396474   
O294     O      0.957560000000     0.714740000000     0.010070000000    -0.396883   
O295     O      0.957550000000     0.762360000000     0.056250000000    -0.401839   
O296     O      0.957550000000     0.761410000000     0.463070000000    -0.402263   
O297     O      0.512640000000     0.761040000000     0.306240000000    -0.402281   
O298     O      0.512640000000     0.762750000000     0.213070000000    -0.402181   
O299     O      0.512630000000     0.809040000000     0.260540000000    -0.396296   
O300     O      0.512630000000     0.714750000000     0.258770000000    -0.396435   
O301     O      0.957520000000     0.714750000000     0.258800000000    -0.396475   
O302     O      0.957520000000     0.809030000000     0.260510000000    -0.396468   
O303     O      0.957520000000     0.762710000000     0.213070000000    -0.402161   
O304     O      0.957520000000     0.761070000000     0.306240000000    -0.402255   
O305     O      0.957940000000     0.967500000000     0.010140000000    -0.475568   
O306     O      0.957940000000     0.556280000000     0.509130000000    -0.479868   
O307     O      0.957650000000     0.511660000000     0.464550000000    -0.45499    
O308     O      0.957650000000     0.012110000000     0.054710000000    -0.454422   
O309     O      0.512210000000     0.510650000000     0.054690000000    -0.454402   
O310     O      0.512210000000     0.513140000000     0.464570000000    -0.455169   
O311     O      0.512220000000     0.556270000000     0.511110000000    -0.480106   
O312     O      0.512220000000     0.967520000000     0.008150000000    -0.475479   
O313     O      0.957870000000     0.967500000000     0.260810000000    -0.475302   
O314     O      0.957870000000     0.556280000000     0.258450000000    -0.479931   
O315     O      0.957650000000     0.510980000000     0.214570000000    -0.455123   
O316     O      0.957660000000     0.012800000000     0.304690000000    -0.455433   
O317     O      0.512240000000     0.513080000000     0.304690000000    -0.455065   
O318     O      0.512240000000     0.510710000000     0.214570000000    -0.455088   
O319     O      0.512190000000     0.556270000000     0.258220000000    -0.480071   
O320     O      0.512180000000     0.967520000000     0.261050000000    -0.47567    
O321     O      0.735940000000     0.986350000000     0.056320000000    -0.396664   
O322     O      0.733950000000     0.985620000000     0.463150000000    -0.396531   
O323     O      0.785070000000     0.985990000000     0.508520000000    -0.390995   
O324     O      0.684810000000     0.986000000000     0.010990000000    -0.39114    
O325     O      0.684820000000     0.537780000000     0.008250000000    -0.396996   
O326     O      0.785080000000     0.537790000000     0.510710000000    -0.396435   
O327     O      0.735940000000     0.537430000000     0.462920000000    -0.402679   
O328     O      0.733950000000     0.538160000000     0.056080000000    -0.401514   
O329     O      0.734850000000     0.985600000000     0.306000000000    -0.395878   
O330     O      0.735070000000     0.986340000000     0.212810000000    -0.398096   
O331     O      0.785090000000     0.985970000000     0.259070000000    -0.391291   
O332     O      0.684820000000     0.985980000000     0.258900000000    -0.391378   
O333     O      0.684830000000     0.537810000000     0.260340000000    -0.396671   
O334     O      0.785100000000     0.537810000000     0.260160000000    -0.39667    
O335     O      0.734860000000     0.538180000000     0.213240000000    -0.401407   
O336     O      0.735070000000     0.537450000000     0.306420000000    -0.403563   
O337     O      0.512670000000     0.761210000000     0.963060000000    -0.398863   
O338     O      0.512670000000     0.762570000000     0.556250000000    -0.402188   
O339     O      0.512660000000     0.714750000000     0.510340000000    -0.396643   
O340     O      0.512660000000     0.809040000000     0.008970000000    -0.39675    
O341     O      0.957560000000     0.809030000000     0.009240000000    -0.39684    
O342     O      0.957560000000     0.714740000000     0.510070000000    -0.396583   
O343     O      0.957550000000     0.762360000000     0.556250000000    -0.402362   
O344     O      0.957550000000     0.761410000000     0.963070000000    -0.399011   
O345     O      0.512640000000     0.761040000000     0.806240000000    -0.402087   
O346     O      0.512640000000     0.762750000000     0.713070000000    -0.402277   
O347     O      0.512620000000     0.809040000000     0.760540000000    -0.396381   
O348     O      0.512630000000     0.714750000000     0.758770000000    -0.39647    
O349     O      0.957530000000     0.714750000000     0.758800000000    -0.396573   
O350     O      0.957520000000     0.809030000000     0.760510000000    -0.396391   
O351     O      0.957520000000     0.762710000000     0.713070000000    -0.40223    
O352     O      0.957520000000     0.761070000000     0.806250000000    -0.401993   
O353     O      0.957940000000     0.967500000000     0.510140000000    -0.475251   
O354     O      0.957940000000     0.556280000000     0.009130000000    -0.479967   
O355     O      0.957650000000     0.511660000000     0.964550000000    -0.451503   
O356     O      0.957650000000     0.012110000000     0.554700000000    -0.455264   
O357     O      0.512210000000     0.510650000000     0.554690000000    -0.455156   
O358     O      0.512210000000     0.513140000000     0.964570000000    -0.45171    
O359     O      0.512220000000     0.556270000000     0.011110000000    -0.480337   
O360     O      0.512220000000     0.967520000000     0.508150000000    -0.475421   
O361     O      0.957870000000     0.967500000000     0.760810000000    -0.475262   
O362     O      0.957870000000     0.556280000000     0.758450000000    -0.479917   
O363     O      0.957650000000     0.510980000000     0.714570000000    -0.455046   
O364     O      0.957660000000     0.012800000000     0.804690000000    -0.455458   
O365     O      0.512240000000     0.513080000000     0.804690000000    -0.455086   
O366     O      0.512240000000     0.510710000000     0.714570000000    -0.455202   
O367     O      0.512190000000     0.556270000000     0.758220000000    -0.480051   
O368     O      0.512180000000     0.967520000000     0.761050000000    -0.475635   
O369     O      0.735930000000     0.986350000000     0.556320000000    -0.397171   
O370     O      0.733950000000     0.985620000000     0.963150000000    -0.393355   
O371     O      0.785070000000     0.985990000000     0.008520000000    -0.391646   
O372     O      0.684810000000     0.986010000000     0.510990000000    -0.39109    
O373     O      0.684820000000     0.537780000000     0.508250000000    -0.396339   
O374     O      0.785080000000     0.537790000000     0.010710000000    -0.396626   
O375     O      0.735940000000     0.537430000000     0.962920000000    -0.399462   
O376     O      0.733960000000     0.538160000000     0.556080000000    -0.402119   
O377     O      0.734850000000     0.985600000000     0.806000000000    -0.395692   
O378     O      0.735070000000     0.986330000000     0.712810000000    -0.398041   
O379     O      0.785090000000     0.985970000000     0.759070000000    -0.391254   
O380     O      0.684820000000     0.985980000000     0.758900000000    -0.391264   
O381     O      0.684830000000     0.537810000000     0.760340000000    -0.39674    
O382     O      0.785100000000     0.537810000000     0.760160000000    -0.396631   
O383     O      0.734860000000     0.538180000000     0.713240000000    -0.401329   
O384     O      0.735070000000     0.537440000000     0.806420000000    -0.40361    


