data_structure

_audit_creation_method RASPA-1.0
_audit_creation_date 2023-6-4
_audit_author_name 'Poobodin Mano'

_cell_length_a    29.1797
_cell_length_b    29.5444
_cell_length_c    21.3009
_cell_angle_alpha 89.9989
_cell_angle_beta  89.9989
_cell_angle_gamma 96.707
_cell_volume      18237.8

_symmetry_cell_setting          triclinic
_symmetry_space_group_name_Hall 'P 1'
_symmetry_space_group_name_H-M  'P 1'
_symmetry_Int_Tables_number     1

_symmetry_equiv_pos_as_xyz 'x,y,z'

loop_
_atom_site_label
_atom_site_type_symbol
_atom_site_fract_x
_atom_site_fract_y
_atom_site_fract_z
_atom_site_charge
C1       C      0.056200000000     0.427610000000     0.007690000000     0.389584   
C2       C      0.431120000000     0.050650000000     0.006710000000     0.421868   
C3       C      0.059770000000     0.055860000000     0.008030000000     0.458303   
C4       C      0.427530000000     0.422180000000     0.006620000000     0.452509   
C5       C      0.056850000000     0.426490000000     0.503910000000     0.41926    
C6       C      0.433530000000     0.051220000000     0.505360000000     0.391726   
C7       C      0.062630000000     0.054180000000     0.503440000000     0.428944   
C8       C      0.427510000000     0.423500000000     0.505620000000     0.455398   
C9       C      0.242530000000     0.238890000000     0.886240000000     0.503358   
C10      C      0.244030000000     0.239320000000     0.126210000000     0.48096    
C11      C      0.303240000000     0.179290000000     0.006260000000     0.440415   
C12      C      0.184120000000     0.299060000000     0.007390000000     0.469285   
C13      C      0.245590000000     0.239490000000     0.386230000000     0.503613   
C14      C      0.243810000000     0.239600000000     0.626220000000     0.478229   
C15      C      0.305780000000     0.179970000000     0.506800000000     0.480274   
C16      C      0.184670000000     0.297820000000     0.505030000000     0.440056   
C17      C      0.269480000000     0.272600000000     0.723860000000     0.0313168  
C18      C      0.215990000000     0.206320000000     0.722690000000    -0.0658658  
C19      C      0.269010000000     0.272260000000     0.789380000000     0.0556331  
C20      C      0.215460000000     0.205850000000     0.788260000000     0.382529   
C21      C      0.210100000000     0.214820000000     0.223870000000     0.0296748  
C22      C      0.279460000000     0.264490000000     0.222660000000    -0.0654157  
C23      C      0.210680000000     0.214980000000     0.289380000000     0.0550266  
C24      C      0.280140000000     0.264760000000     0.288240000000     0.3816     
C25      C      0.113780000000     0.323720000000     0.540640000000     0.0273453  
C26      C      0.159760000000     0.367950000000     0.467750000000    -0.063016   
C27      C      0.082900000000     0.357390000000     0.542630000000     0.0474719  
C28      C      0.126510000000     0.399330000000     0.464980000000     0.373174   
C29      C      0.359090000000     0.318980000000     0.463890000000     0.0339159  
C30      C      0.323860000000     0.352390000000     0.549820000000    -0.0760313  
C31      C      0.392970000000     0.355430000000     0.462120000000     0.0698525  
C32      C      0.359050000000     0.387730000000     0.550670000000     0.390936   
C33      C      0.365520000000     0.080040000000     0.464760000000     0.0286157  
C34      C      0.406210000000     0.118920000000     0.547390000000    -0.0637888  
C35      C      0.332170000000     0.111260000000     0.467380000000     0.0595318  
C36      C      0.375390000000     0.152680000000     0.545860000000     0.379248   
C37      C      0.097810000000     0.122030000000     0.459290000000     0.0330096  
C38      C      0.131310000000     0.088870000000     0.547340000000    -0.0698343  
C39      C      0.132000000000     0.158270000000     0.461610000000     0.0517653  
C40      C      0.167020000000     0.123630000000     0.546770000000     0.38347    
C41      C      0.083920000000     0.359860000000     0.966670000000     0.0296937  
C42      C      0.124220000000     0.399270000000     0.049200000000    -0.0645383  
C43      C      0.114850000000     0.326280000000     0.968920000000     0.0537646  
C44      C      0.157820000000     0.368210000000     0.047170000000     0.373866   
C45      C      0.324630000000     0.351020000000     0.961450000000     0.0280148  
C46      C      0.358130000000     0.317790000000     0.048960000000    -0.0770344  
C47      C      0.360480000000     0.385650000000     0.960730000000     0.0631305  
C48      C      0.392790000000     0.353580000000     0.050690000000     0.391157   
C49      C      0.328570000000     0.109250000000     0.043460000000     0.0288562  
C50      C      0.373610000000     0.153180000000     0.969300000000    -0.0593921  
C51      C      0.362050000000     0.078120000000     0.045780000000     0.0496583  
C52      C      0.404760000000     0.119760000000     0.967040000000     0.377413   
C53      C      0.163410000000     0.126360000000     0.964430000000     0.0298486  
C54      C      0.129090000000     0.160270000000     0.050710000000    -0.0794822  
C55      C      0.127590000000     0.091740000000     0.963560000000     0.0730709  
C56      C      0.094420000000     0.124440000000     0.052390000000     0.393915   
C57      C      0.056200000000     0.927610000000     0.007690000000     0.389534   
C58      C      0.431120000000     0.550650000000     0.006710000000     0.421948   
C59      C      0.059770000000     0.555860000000     0.008030000000     0.458374   
C60      C      0.427530000000     0.922180000000     0.006620000000     0.452445   
C61      C      0.056850000000     0.926490000000     0.503910000000     0.419207   
C62      C      0.433530000000     0.551220000000     0.505360000000     0.391786   
C63      C      0.062630000000     0.554180000000     0.503440000000     0.429011   
C64      C      0.427520000000     0.923500000000     0.505620000000     0.455347   
C65      C      0.242530000000     0.738890000000     0.886240000000     0.503387   
C66      C      0.244030000000     0.739320000000     0.126210000000     0.481006   
C67      C      0.303240000000     0.679280000000     0.006260000000     0.440204   
C68      C      0.184120000000     0.799060000000     0.007390000000     0.469259   
C69      C      0.245590000000     0.739490000000     0.386230000000     0.503619   
C70      C      0.243810000000     0.739600000000     0.626220000000     0.478238   
C71      C      0.305780000000     0.679970000000     0.506800000000     0.480254   
C72      C      0.184670000000     0.797810000000     0.505030000000     0.440145   
C73      C      0.269480000000     0.772600000000     0.723860000000     0.0313146  
C74      C      0.215990000000     0.706320000000     0.722690000000    -0.065933   
C75      C      0.269010000000     0.772260000000     0.789380000000     0.0556097  
C76      C      0.215460000000     0.705850000000     0.788260000000     0.382527   
C77      C      0.210100000000     0.714820000000     0.223880000000     0.0296405  
C78      C      0.279460000000     0.764490000000     0.222660000000    -0.0654233  
C79      C      0.210680000000     0.714980000000     0.289380000000     0.0550326  
C80      C      0.280140000000     0.764760000000     0.288240000000     0.381594   
C81      C      0.113780000000     0.823720000000     0.540640000000     0.0273297  
C82      C      0.159760000000     0.867950000000     0.467750000000    -0.0630299  
C83      C      0.082900000000     0.857390000000     0.542630000000     0.0474612  
C84      C      0.126510000000     0.899330000000     0.464980000000     0.373146   
C85      C      0.359090000000     0.818980000000     0.463890000000     0.0339584  
C86      C      0.323860000000     0.852400000000     0.549820000000    -0.0760924  
C87      C      0.392970000000     0.855430000000     0.462120000000     0.0698105  
C88      C      0.359050000000     0.887730000000     0.550670000000     0.390882   
C89      C      0.365520000000     0.580040000000     0.464760000000     0.0286011  
C90      C      0.406210000000     0.618910000000     0.547390000000    -0.0636796  
C91      C      0.332170000000     0.611260000000     0.467380000000     0.0594839  
C92      C      0.375390000000     0.652690000000     0.545860000000     0.379287   
C93      C      0.097810000000     0.622030000000     0.459290000000     0.0329956  
C94      C      0.131310000000     0.588870000000     0.547340000000    -0.069854   
C95      C      0.132000000000     0.658270000000     0.461610000000     0.0517554  
C96      C      0.167020000000     0.623630000000     0.546770000000     0.38345    
C97      C      0.083920000000     0.859860000000     0.966680000000     0.0297261  
C98      C      0.124220000000     0.899270000000     0.049200000000    -0.0645287  
C99      C      0.114850000000     0.826280000000     0.968920000000     0.0537321  
C100     C      0.157820000000     0.868210000000     0.047170000000     0.373833   
C101     C      0.324630000000     0.851020000000     0.961450000000     0.0280189  
C102     C      0.358130000000     0.817790000000     0.048960000000    -0.0770337  
C103     C      0.360480000000     0.885650000000     0.960730000000     0.0631085  
C104     C      0.392800000000     0.853580000000     0.050690000000     0.391224   
C105     C      0.328570000000     0.609250000000     0.043460000000     0.0288188  
C106     C      0.373610000000     0.653180000000     0.969300000000    -0.0594773  
C107     C      0.362050000000     0.578120000000     0.045780000000     0.0496438  
C108     C      0.404760000000     0.619760000000     0.967040000000     0.377601   
C109     C      0.163410000000     0.626360000000     0.964430000000     0.0298281  
C110     C      0.129090000000     0.660270000000     0.050710000000    -0.0794967  
C111     C      0.127590000000     0.591740000000     0.963560000000     0.0730516  
C112     C      0.094420000000     0.624440000000     0.052390000000     0.393902   
C113     C      0.556200000000     0.427610000000     0.007690000000     0.389647   
C114     C      0.931120000000     0.050650000000     0.006710000000     0.421822   
C115     C      0.559770000000     0.055860000000     0.008030000000     0.458384   
C116     C      0.927530000000     0.422180000000     0.006620000000     0.452496   
C117     C      0.556850000000     0.426490000000     0.503910000000     0.419277   
C118     C      0.933530000000     0.051220000000     0.505360000000     0.391662   
C119     C      0.562630000000     0.054180000000     0.503440000000     0.429027   
C120     C      0.927520000000     0.423500000000     0.505620000000     0.455345   
C121     C      0.742540000000     0.238890000000     0.886240000000     0.503358   
C122     C      0.744030000000     0.239320000000     0.126210000000     0.480956   
C123     C      0.803230000000     0.179290000000     0.006260000000     0.440463   
C124     C      0.684120000000     0.299060000000     0.007390000000     0.469199   
C125     C      0.745590000000     0.239490000000     0.386230000000     0.503607   
C126     C      0.743810000000     0.239600000000     0.626220000000     0.478231   
C127     C      0.805780000000     0.179970000000     0.506800000000     0.480122   
C128     C      0.684670000000     0.297820000000     0.505030000000     0.440131   
C129     C      0.769480000000     0.272600000000     0.723860000000     0.0312855  
C130     C      0.715990000000     0.206320000000     0.722690000000    -0.0659166  
C131     C      0.769000000000     0.272260000000     0.789380000000     0.0556593  
C132     C      0.715460000000     0.205850000000     0.788260000000     0.382612   
C133     C      0.710100000000     0.214820000000     0.223870000000     0.029673   
C134     C      0.779460000000     0.264490000000     0.222660000000    -0.0653217  
C135     C      0.710680000000     0.214980000000     0.289380000000     0.0550107  
C136     C      0.780140000000     0.264760000000     0.288240000000     0.381452   
C137     C      0.613780000000     0.323720000000     0.540640000000     0.027315   
C138     C      0.659760000000     0.367950000000     0.467750000000    -0.0630443  
C139     C      0.582900000000     0.357390000000     0.542630000000     0.0474482  
C140     C      0.626510000000     0.399330000000     0.464980000000     0.373202   
C141     C      0.859090000000     0.318980000000     0.463890000000     0.0339064  
C142     C      0.823860000000     0.352390000000     0.549820000000    -0.0760366  
C143     C      0.892970000000     0.355430000000     0.462120000000     0.0698138  
C144     C      0.859050000000     0.387730000000     0.550670000000     0.390918   
C145     C      0.865520000000     0.080040000000     0.464760000000     0.028607   
C146     C      0.906210000000     0.118920000000     0.547390000000    -0.063802   
C147     C      0.832170000000     0.111260000000     0.467380000000     0.0595137  
C148     C      0.875390000000     0.152680000000     0.545860000000     0.379213   
C149     C      0.597820000000     0.122030000000     0.459290000000     0.0330194  
C150     C      0.631310000000     0.088870000000     0.547340000000    -0.0698009  
C151     C      0.632000000000     0.158270000000     0.461610000000     0.0517154  
C152     C      0.667020000000     0.123630000000     0.546770000000     0.383321   
C153     C      0.583920000000     0.359860000000     0.966670000000     0.0296644  
C154     C      0.624220000000     0.399270000000     0.049200000000    -0.064556   
C155     C      0.614850000000     0.326280000000     0.968920000000     0.053734   
C156     C      0.657820000000     0.368210000000     0.047170000000     0.373849   
C157     C      0.824640000000     0.351020000000     0.961450000000     0.0280569  
C158     C      0.858130000000     0.317790000000     0.048960000000    -0.0770291  
C159     C      0.860480000000     0.385650000000     0.960730000000     0.0630557  
C160     C      0.892800000000     0.353580000000     0.050690000000     0.391221   
C161     C      0.828570000000     0.109250000000     0.043460000000     0.0288314  
C162     C      0.873610000000     0.153180000000     0.969300000000    -0.0594581  
C163     C      0.862050000000     0.078120000000     0.045780000000     0.0496522  
C164     C      0.904760000000     0.119760000000     0.967040000000     0.37751    
C165     C      0.663410000000     0.126360000000     0.964430000000     0.0298365  
C166     C      0.629100000000     0.160270000000     0.050710000000    -0.0794178  
C167     C      0.627590000000     0.091740000000     0.963560000000     0.0730499  
C168     C      0.594420000000     0.124440000000     0.052390000000     0.393834   
C169     C      0.556200000000     0.927610000000     0.007690000000     0.389598   
C170     C      0.931120000000     0.550650000000     0.006710000000     0.421883   
C171     C      0.559770000000     0.555860000000     0.008030000000     0.458452   
C172     C      0.927530000000     0.922180000000     0.006620000000     0.452369   
C173     C      0.556850000000     0.926490000000     0.503910000000     0.419268   
C174     C      0.933530000000     0.551220000000     0.505360000000     0.391718   
C175     C      0.562630000000     0.554180000000     0.503440000000     0.429037   
C176     C      0.927510000000     0.923500000000     0.505620000000     0.455257   
C177     C      0.742530000000     0.738890000000     0.886240000000     0.503369   
C178     C      0.744040000000     0.739320000000     0.126210000000     0.480971   
C179     C      0.803230000000     0.679280000000     0.006260000000     0.440145   
C180     C      0.684120000000     0.799060000000     0.007390000000     0.469032   
C181     C      0.745590000000     0.739490000000     0.386230000000     0.503614   
C182     C      0.743810000000     0.739600000000     0.626220000000     0.478236   
C183     C      0.805780000000     0.679970000000     0.506800000000     0.48025    
C184     C      0.684660000000     0.797810000000     0.505030000000     0.440078   
C185     C      0.769480000000     0.772600000000     0.723860000000     0.031283   
C186     C      0.715990000000     0.706320000000     0.722690000000    -0.0659403  
C187     C      0.769000000000     0.772260000000     0.789380000000     0.0556399  
C188     C      0.715460000000     0.705850000000     0.788260000000     0.382587   
C189     C      0.710100000000     0.714820000000     0.223880000000     0.029597   
C190     C      0.779460000000     0.764490000000     0.222660000000    -0.0653567  
C191     C      0.710680000000     0.714980000000     0.289380000000     0.0550355  
C192     C      0.780140000000     0.764760000000     0.288240000000     0.381557   
C193     C      0.613780000000     0.823720000000     0.540640000000     0.0273027  
C194     C      0.659760000000     0.867950000000     0.467750000000    -0.0630321  
C195     C      0.582900000000     0.857390000000     0.542630000000     0.0474289  
C196     C      0.626510000000     0.899330000000     0.464980000000     0.373123   
C197     C      0.859090000000     0.818980000000     0.463890000000     0.0339392  
C198     C      0.823860000000     0.852400000000     0.549820000000    -0.0760988  
C199     C      0.892970000000     0.855430000000     0.462120000000     0.069799   
C200     C      0.859050000000     0.887730000000     0.550670000000     0.390865   
C201     C      0.865520000000     0.580040000000     0.464760000000     0.0285828  
C202     C      0.906210000000     0.618910000000     0.547390000000    -0.0637067  
C203     C      0.832170000000     0.611260000000     0.467380000000     0.0594766  
C204     C      0.875390000000     0.652690000000     0.545860000000     0.379265   
C205     C      0.597820000000     0.622030000000     0.459290000000     0.0329928  
C206     C      0.631310000000     0.588870000000     0.547340000000    -0.0698705  
C207     C      0.632000000000     0.658270000000     0.461610000000     0.0517131  
C208     C      0.667020000000     0.623630000000     0.546770000000     0.383435   
C209     C      0.583920000000     0.859860000000     0.966680000000     0.0296984  
C210     C      0.624220000000     0.899270000000     0.049200000000    -0.0645437  
C211     C      0.614850000000     0.826280000000     0.968920000000     0.053696   
C212     C      0.657820000000     0.868210000000     0.047170000000     0.37381    
C213     C      0.824640000000     0.851020000000     0.961450000000     0.0280378  
C214     C      0.858130000000     0.817790000000     0.048960000000    -0.0770353  
C215     C      0.860480000000     0.885650000000     0.960730000000     0.0630704  
C216     C      0.892800000000     0.853580000000     0.050690000000     0.391189   
C217     C      0.828570000000     0.609250000000     0.043460000000     0.0287815  
C218     C      0.873610000000     0.653180000000     0.969300000000    -0.0595001  
C219     C      0.862050000000     0.578120000000     0.045780000000     0.0496382  
C220     C      0.904760000000     0.619760000000     0.967040000000     0.377571   
C221     C      0.663410000000     0.626360000000     0.964430000000     0.0298117  
C222     C      0.629090000000     0.660270000000     0.050710000000    -0.0795189  
C223     C      0.627590000000     0.591740000000     0.963560000000     0.073036   
C224     C      0.594420000000     0.624440000000     0.052390000000     0.393872   
Cu1      Cu     0.493880000000     0.989090000000     0.949740000000     0.875647   
Cu2      Cu     0.993320000000     0.489040000000     0.064870000000     0.885105   
Cu3      Cu     0.494700000000     0.988790000000     0.447020000000     0.875827   
Cu4      Cu     0.995560000000     0.488830000000     0.562090000000     0.875201   
Cu5      Cu     0.277810000000     0.272230000000     0.005720000000     1.13211    
Cu6      Cu     0.209350000000     0.205900000000     0.006900000000     1.13043    
Cu7      Cu     0.279200000000     0.272300000000     0.506800000000     1.13161    
Cu8      Cu     0.211210000000     0.205300000000     0.505570000000     1.17209    
Cu9      Cu     0.493880000000     0.489090000000     0.949740000000     0.876257   
Cu10     Cu     0.993320000000     0.989040000000     0.064870000000     0.884502   
Cu11     Cu     0.494700000000     0.488790000000     0.447020000000     0.876472   
Cu12     Cu     0.995560000000     0.988830000000     0.562090000000     0.874608   
Cu13     Cu     0.277810000000     0.772220000000     0.005730000000     1.13208    
Cu14     Cu     0.209350000000     0.705900000000     0.006900000000     1.13036    
Cu15     Cu     0.279200000000     0.772310000000     0.506800000000     1.1317     
Cu16     Cu     0.211210000000     0.705300000000     0.505570000000     1.17216    
Cu17     Cu     0.993880000000     0.989090000000     0.949740000000     0.874952   
Cu18     Cu     0.493320000000     0.489040000000     0.064870000000     0.885805   
Cu19     Cu     0.994700000000     0.988790000000     0.447020000000     0.875118   
Cu20     Cu     0.495560000000     0.488830000000     0.562090000000     0.875901   
Cu21     Cu     0.777810000000     0.272230000000     0.005720000000     1.13211    
Cu22     Cu     0.709350000000     0.205900000000     0.006900000000     1.13033    
Cu23     Cu     0.779200000000     0.272300000000     0.506800000000     1.13159    
Cu24     Cu     0.711210000000     0.205300000000     0.505570000000     1.17226    
Cu25     Cu     0.993880000000     0.489090000000     0.949740000000     0.875555   
Cu26     Cu     0.493320000000     0.989040000000     0.064870000000     0.88527    
Cu27     Cu     0.994700000000     0.488790000000     0.447020000000     0.875723   
Cu28     Cu     0.495560000000     0.988830000000     0.562090000000     0.875308   
Cu29     Cu     0.777800000000     0.772220000000     0.005730000000     1.13194    
Cu30     Cu     0.709350000000     0.705900000000     0.006900000000     1.13016    
Cu31     Cu     0.779200000000     0.772310000000     0.506800000000     1.13168    
Cu32     Cu     0.711210000000     0.705300000000     0.505570000000     1.17217    
F1       F      0.187710000000     0.171960000000     0.817150000000    -0.436463   
F2       F      0.315720000000     0.290400000000     0.317100000000    -0.437197   
F3       F      0.134720000000     0.435880000000     0.426180000000    -0.429707   
F4       F      0.357170000000     0.421780000000     0.593230000000    -0.434369   
F5       F      0.382440000000     0.188020000000     0.586900000000    -0.430231   
F6       F      0.202830000000     0.122400000000     0.586980000000    -0.443224   
F7       F      0.193850000000     0.374500000000     0.087880000000    -0.431901   
F8       F      0.426670000000     0.352890000000     0.094430000000    -0.430736   
F9       F      0.441650000000     0.126920000000     0.927850000000    -0.425174   
F10      F      0.060170000000     0.125360000000     0.095520000000    -0.431532   
F11      F      0.187710000000     0.671960000000     0.817150000000    -0.436484   
F12      F      0.315720000000     0.790400000000     0.317100000000    -0.437213   
F13      F      0.134720000000     0.935880000000     0.426180000000    -0.429785   
F14      F      0.357170000000     0.921780000000     0.593240000000    -0.434394   
F15      F      0.382450000000     0.688020000000     0.586900000000    -0.430299   
F16      F      0.202830000000     0.622400000000     0.586980000000    -0.443259   
F17      F      0.193850000000     0.874500000000     0.087880000000    -0.431934   
F18      F      0.426670000000     0.852890000000     0.094430000000    -0.430807   
F19      F      0.441640000000     0.626920000000     0.927860000000    -0.425313   
F20      F      0.060170000000     0.625360000000     0.095520000000    -0.431559   
F21      F      0.687720000000     0.171960000000     0.817150000000    -0.436538   
F22      F      0.815730000000     0.290400000000     0.317100000000    -0.437149   
F23      F      0.634720000000     0.435880000000     0.426180000000    -0.429746   
F24      F      0.857170000000     0.421780000000     0.593230000000    -0.434374   
F25      F      0.882450000000     0.188020000000     0.586900000000    -0.43027    
F26      F      0.702840000000     0.122400000000     0.586980000000    -0.443154   
F27      F      0.693850000000     0.374500000000     0.087880000000    -0.43191    
F28      F      0.926670000000     0.352890000000     0.094430000000    -0.430878   
F29      F      0.941640000000     0.126920000000     0.927850000000    -0.425341   
F30      F      0.560170000000     0.125360000000     0.095520000000    -0.431633   
F31      F      0.687720000000     0.671960000000     0.817150000000    -0.436556   
F32      F      0.815720000000     0.790400000000     0.317100000000    -0.437227   
F33      F      0.634720000000     0.935880000000     0.426180000000    -0.429813   
F34      F      0.857170000000     0.921780000000     0.593240000000    -0.43441    
F35      F      0.882450000000     0.688020000000     0.586900000000    -0.430344   
F36      F      0.702830000000     0.622400000000     0.586980000000    -0.443265   
F37      F      0.693850000000     0.874500000000     0.087880000000    -0.43194    
F38      F      0.926670000000     0.852890000000     0.094430000000    -0.430886   
F39      F      0.941640000000     0.626920000000     0.927860000000    -0.425406   
F40      F      0.560170000000     0.625360000000     0.095520000000    -0.43167    
H1       H      0.290660000000     0.299140000000     0.813470000000     0.045058   
H2       H      0.291390000000     0.299660000000     0.700490000000     0.0585995  
H3       H      0.194380000000     0.179570000000     0.698280000000     0.126559   
H4       H      0.182620000000     0.194770000000     0.313480000000     0.0454785  
H5       H      0.181700000000     0.194560000000     0.200530000000     0.0560452  
H6       H      0.307390000000     0.284640000000     0.198210000000     0.11193    
H7       H      0.053360000000     0.351900000000     0.573740000000     0.0467167  
H8       H      0.106890000000     0.294180000000     0.570860000000     0.05088    
H9       H      0.190000000000     0.374010000000     0.437970000000     0.106489   
H10      H      0.420070000000     0.355370000000     0.427220000000     0.0529038  
H11      H      0.359920000000     0.291170000000     0.431140000000     0.0741138  
H12      H      0.295650000000     0.351990000000     0.582770000000     0.0963198  
H13      H      0.303170000000     0.106320000000     0.435280000000     0.0495017  
H14      H      0.360320000000     0.052240000000     0.431330000000     0.0574751  
H15      H      0.434590000000     0.123110000000     0.580530000000     0.104158   
H16      H      0.131410000000     0.186310000000     0.429160000000     0.0363494  
H17      H      0.070750000000     0.122410000000     0.424420000000     0.0519176  
H18      H      0.132120000000     0.061620000000     0.581360000000     0.109064   
H19      H      0.109230000000     0.297720000000     0.936750000000     0.0507713  
H20      H      0.055610000000     0.355280000000     0.933450000000     0.055147   
H21      H      0.129070000000     0.427220000000     0.082440000000     0.103654   
H22      H      0.360170000000     0.412180000000     0.925530000000     0.0448851  
H23      H      0.296990000000     0.350830000000     0.927660000000     0.0445407  
H24      H      0.358030000000     0.290190000000     0.082280000000     0.0998232  
H25      H      0.356150000000     0.049300000000     0.077460000000     0.048449   
H26      H      0.298760000000     0.103250000000     0.074020000000     0.0505175  
H27      H      0.380090000000     0.182650000000     0.938850000000     0.104495   
H28      H      0.128260000000     0.064950000000     0.928820000000     0.0503581  
H29      H      0.191430000000     0.126270000000     0.931300000000     0.0714569  
H30      H      0.128970000000     0.188110000000     0.083610000000     0.0992354  
H31      H      0.290660000000     0.799140000000     0.813470000000     0.0450552  
H32      H      0.291390000000     0.799660000000     0.700490000000     0.0585889  
H33      H      0.194390000000     0.679570000000     0.698290000000     0.126571   
H34      H      0.182620000000     0.694760000000     0.313480000000     0.0454604  
H35      H      0.181700000000     0.694560000000     0.200540000000     0.0560312  
H36      H      0.307390000000     0.784640000000     0.198210000000     0.111921   
H37      H      0.053360000000     0.851900000000     0.573740000000     0.0467124  
H38      H      0.106890000000     0.794180000000     0.570860000000     0.0508791  
H39      H      0.190000000000     0.874010000000     0.437970000000     0.106464   
H40      H      0.420070000000     0.855370000000     0.427220000000     0.0529054  
H41      H      0.359920000000     0.791160000000     0.431140000000     0.0740974  
H42      H      0.295650000000     0.851990000000     0.582770000000     0.0963165  
H43      H      0.303170000000     0.606320000000     0.435280000000     0.0494714  
H44      H      0.360320000000     0.552240000000     0.431330000000     0.0573949  
H45      H      0.434590000000     0.623110000000     0.580530000000     0.104103   
H46      H      0.131410000000     0.686310000000     0.429160000000     0.0363445  
H47      H      0.070750000000     0.622410000000     0.424420000000     0.0518955  
H48      H      0.132120000000     0.561620000000     0.581360000000     0.108993   
H49      H      0.109230000000     0.797720000000     0.936750000000     0.0507735  
H50      H      0.055610000000     0.855270000000     0.933450000000     0.0551243  
H51      H      0.129070000000     0.927220000000     0.082450000000     0.103586   
H52      H      0.360170000000     0.912180000000     0.925530000000     0.0448381  
H53      H      0.296990000000     0.850830000000     0.927660000000     0.0445301  
H54      H      0.358030000000     0.790190000000     0.082280000000     0.0998171  
H55      H      0.356150000000     0.549300000000     0.077460000000     0.0483724  
H56      H      0.298760000000     0.603250000000     0.074020000000     0.050481   
H57      H      0.380090000000     0.682650000000     0.938850000000     0.104513   
H58      H      0.128260000000     0.564950000000     0.928820000000     0.0502893  
H59      H      0.191430000000     0.626270000000     0.931300000000     0.0714342  
H60      H      0.128970000000     0.688110000000     0.083610000000     0.0992349  
H61      H      0.790660000000     0.299140000000     0.813470000000     0.0450369  
H62      H      0.791390000000     0.299660000000     0.700490000000     0.058592   
H63      H      0.694380000000     0.179570000000     0.698280000000     0.126546   
H64      H      0.682620000000     0.194770000000     0.313480000000     0.0454613  
H65      H      0.681700000000     0.194560000000     0.200530000000     0.056025   
H66      H      0.807400000000     0.284640000000     0.198210000000     0.111884   
H67      H      0.553350000000     0.351900000000     0.573740000000     0.0466231  
H68      H      0.606890000000     0.294180000000     0.570860000000     0.0508295  
H69      H      0.690000000000     0.374010000000     0.437970000000     0.106484   
H70      H      0.920070000000     0.355370000000     0.427220000000     0.0528503  
H71      H      0.859920000000     0.291170000000     0.431140000000     0.0740934  
H72      H      0.795650000000     0.351990000000     0.582770000000     0.0963165  
H73      H      0.803170000000     0.106320000000     0.435280000000     0.0494975  
H74      H      0.860310000000     0.052240000000     0.431330000000     0.0574606  
H75      H      0.934590000000     0.123110000000     0.580530000000     0.104096   
H76      H      0.631410000000     0.186310000000     0.429160000000     0.0363244  
H77      H      0.570750000000     0.122410000000     0.424420000000     0.0518297  
H78      H      0.632110000000     0.061620000000     0.581360000000     0.109024   
H79      H      0.609230000000     0.297720000000     0.936750000000     0.0507333  
H80      H      0.555610000000     0.355280000000     0.933450000000     0.0550562  
H81      H      0.629070000000     0.427220000000     0.082440000000     0.103631   
H82      H      0.860170000000     0.412180000000     0.925530000000     0.0448924  
H83      H      0.796990000000     0.350830000000     0.927660000000     0.0445269  
H84      H      0.858030000000     0.290190000000     0.082280000000     0.0997948  
H85      H      0.856150000000     0.049300000000     0.077460000000     0.0484456  
H86      H      0.798760000000     0.103250000000     0.074020000000     0.050518   
H87      H      0.880090000000     0.182650000000     0.938850000000     0.104481   
H88      H      0.628260000000     0.064950000000     0.928820000000     0.0503343  
H89      H      0.691430000000     0.126270000000     0.931300000000     0.0714551  
H90      H      0.628970000000     0.188110000000     0.083610000000     0.0991799  
H91      H      0.790660000000     0.799140000000     0.813470000000     0.0450356  
H92      H      0.791390000000     0.799660000000     0.700490000000     0.0585822  
H93      H      0.694380000000     0.679570000000     0.698290000000     0.126541   
H94      H      0.682620000000     0.694760000000     0.313480000000     0.0454383  
H95      H      0.681700000000     0.694560000000     0.200540000000     0.0560224  
H96      H      0.807400000000     0.784640000000     0.198210000000     0.111881   
H97      H      0.553360000000     0.851900000000     0.573740000000     0.0466174  
H98      H      0.606890000000     0.794180000000     0.570860000000     0.0508304  
H99      H      0.690000000000     0.874010000000     0.437970000000     0.106454   
H100     H      0.920070000000     0.855370000000     0.427220000000     0.0528429  
H101     H      0.859920000000     0.791160000000     0.431140000000     0.0740756  
H102     H      0.795650000000     0.851990000000     0.582770000000     0.0963116  
H103     H      0.803170000000     0.606320000000     0.435280000000     0.0494652  
H104     H      0.860320000000     0.552240000000     0.431330000000     0.0573886  
H105     H      0.934590000000     0.623110000000     0.580530000000     0.104036   
H106     H      0.631410000000     0.686310000000     0.429160000000     0.0363202  
H107     H      0.570750000000     0.622410000000     0.424420000000     0.0518122  
H108     H      0.632120000000     0.561620000000     0.581360000000     0.10897    
H109     H      0.609230000000     0.797720000000     0.936750000000     0.0507365  
H110     H      0.555610000000     0.855270000000     0.933450000000     0.0550321  
H111     H      0.629070000000     0.927220000000     0.082450000000     0.103563   
H112     H      0.860170000000     0.912180000000     0.925530000000     0.0448362  
H113     H      0.796990000000     0.850830000000     0.927660000000     0.0445264  
H114     H      0.858030000000     0.790190000000     0.082280000000     0.0998044  
H115     H      0.856150000000     0.549300000000     0.077460000000     0.0483633  
H116     H      0.798770000000     0.603250000000     0.074020000000     0.0504825  
H117     H      0.880090000000     0.682650000000     0.938850000000     0.104489   
H118     H      0.628260000000     0.564950000000     0.928820000000     0.0502644  
H119     H      0.691430000000     0.626270000000     0.931300000000     0.0714372  
H120     H      0.628970000000     0.688110000000     0.083610000000     0.0992095  
N1       N      0.243070000000     0.239550000000     0.690580000000    -0.15974    
N2       N      0.242180000000     0.238860000000     0.821730000000    -0.235304   
N3       N      0.244510000000     0.239540000000     0.190570000000    -0.163264   
N4       N      0.245650000000     0.239860000000     0.321730000000    -0.235387   
N5       N      0.152940000000     0.329500000000     0.504400000000    -0.156959   
N6       N      0.088480000000     0.394700000000     0.503670000000    -0.21356    
N7       N      0.325070000000     0.318710000000     0.507030000000    -0.218776   
N8       N      0.393070000000     0.389090000000     0.506180000000    -0.233458   
N9       N      0.402030000000     0.083130000000     0.505810000000    -0.14444    
N10      N      0.337580000000     0.148340000000     0.506740000000    -0.221376   
N11      N      0.097310000000     0.088290000000     0.503210000000    -0.157508   
N12      N      0.165920000000     0.158100000000     0.504950000000    -0.297758   
N13      N      0.087870000000     0.395870000000     0.007860000000    -0.145872   
N14      N      0.152600000000     0.330950000000     0.007910000000    -0.223881   
N15      N      0.324540000000     0.317820000000     0.005200000000    -0.222215   
N16      N      0.393710000000     0.387140000000     0.006160000000    -0.2336     
N17      N      0.334830000000     0.147470000000     0.006320000000    -0.157335   
N18      N      0.399610000000     0.082570000000     0.006410000000    -0.212468   
N19      N      0.162940000000     0.160020000000     0.007370000000    -0.221164   
N20      N      0.093820000000     0.090680000000     0.008180000000    -0.233313   
N21      N      0.243070000000     0.739550000000     0.690580000000    -0.159734   
N22      N      0.242180000000     0.738860000000     0.821740000000    -0.235325   
N23      N      0.244510000000     0.739540000000     0.190580000000    -0.163234   
N24      N      0.245650000000     0.739860000000     0.321730000000    -0.235393   
N25      N      0.152940000000     0.829500000000     0.504400000000    -0.156934   
N26      N      0.088480000000     0.894700000000     0.503670000000    -0.213561   
N27      N      0.325070000000     0.818710000000     0.507030000000    -0.218849   
N28      N      0.393070000000     0.889090000000     0.506180000000    -0.233406   
N29      N      0.402030000000     0.583130000000     0.505810000000    -0.144493   
N30      N      0.337580000000     0.648340000000     0.506750000000    -0.221405   
N31      N      0.097310000000     0.588290000000     0.503210000000    -0.15754    
N32      N      0.165920000000     0.658100000000     0.504950000000    -0.297767   
N33      N      0.087870000000     0.895870000000     0.007860000000    -0.145892   
N34      N      0.152600000000     0.830950000000     0.007910000000    -0.223872   
N35      N      0.324540000000     0.817820000000     0.005200000000    -0.222157   
N36      N      0.393710000000     0.887140000000     0.006160000000    -0.233616   
N37      N      0.334830000000     0.647470000000     0.006320000000    -0.157334   
N38      N      0.399610000000     0.582570000000     0.006410000000    -0.212535   
N39      N      0.162940000000     0.660020000000     0.007370000000    -0.221158   
N40      N      0.093820000000     0.590680000000     0.008180000000    -0.233344   
N41      N      0.743070000000     0.239550000000     0.690580000000    -0.159734   
N42      N      0.742180000000     0.238860000000     0.821730000000    -0.235333   
N43      N      0.744510000000     0.239540000000     0.190570000000    -0.163283   
N44      N      0.745650000000     0.239860000000     0.321730000000    -0.235366   
N45      N      0.652940000000     0.329500000000     0.504400000000    -0.156979   
N46      N      0.588490000000     0.394700000000     0.503670000000    -0.213596   
N47      N      0.825070000000     0.318710000000     0.507030000000    -0.218777   
N48      N      0.893070000000     0.389090000000     0.506180000000    -0.233414   
N49      N      0.902030000000     0.083130000000     0.505810000000    -0.144445   
N50      N      0.837580000000     0.148340000000     0.506740000000    -0.221355   
N51      N      0.597310000000     0.088290000000     0.503210000000    -0.157562   
N52      N      0.665920000000     0.158100000000     0.504950000000    -0.297748   
N53      N      0.587870000000     0.395870000000     0.007860000000    -0.145907   
N54      N      0.652600000000     0.330950000000     0.007910000000    -0.223865   
N55      N      0.824540000000     0.317820000000     0.005200000000    -0.222231   
N56      N      0.893720000000     0.387140000000     0.006160000000    -0.233641   
N57      N      0.834830000000     0.147470000000     0.006320000000    -0.157296   
N58      N      0.899610000000     0.082570000000     0.006410000000    -0.212495   
N59      N      0.662940000000     0.160020000000     0.007370000000    -0.221165   
N60      N      0.593820000000     0.090680000000     0.008180000000    -0.233339   
N61      N      0.743070000000     0.739550000000     0.690580000000    -0.159734   
N62      N      0.742180000000     0.738860000000     0.821740000000    -0.235348   
N63      N      0.744520000000     0.739540000000     0.190580000000    -0.16323    
N64      N      0.745650000000     0.739860000000     0.321730000000    -0.235393   
N65      N      0.652940000000     0.829500000000     0.504400000000    -0.156972   
N66      N      0.588480000000     0.894700000000     0.503670000000    -0.213594   
N67      N      0.825070000000     0.818710000000     0.507030000000    -0.21885    
N68      N      0.893070000000     0.889090000000     0.506180000000    -0.233446   
N69      N      0.902030000000     0.583130000000     0.505810000000    -0.144495   
N70      N      0.837580000000     0.648340000000     0.506750000000    -0.221408   
N71      N      0.597310000000     0.588290000000     0.503210000000    -0.157575   
N72      N      0.665920000000     0.658100000000     0.504950000000    -0.297768   
N73      N      0.587870000000     0.895870000000     0.007860000000    -0.145928   
N74      N      0.652600000000     0.830950000000     0.007910000000    -0.223832   
N75      N      0.824540000000     0.817820000000     0.005200000000    -0.222091   
N76      N      0.893710000000     0.887140000000     0.006160000000    -0.233608   
N77      N      0.834830000000     0.647470000000     0.006320000000    -0.157275   
N78      N      0.899610000000     0.582570000000     0.006410000000    -0.212538   
N79      N      0.662940000000     0.660020000000     0.007370000000    -0.221136   
N80      N      0.593820000000     0.590680000000     0.008180000000    -0.23338    
O1       O      0.036360000000     0.437500000000     0.956120000000    -0.3678     
O2       O      0.451340000000     0.040660000000     0.955470000000    -0.336658   
O3       O      0.048730000000     0.035490000000     0.956310000000    -0.400458   
O4       O      0.438990000000     0.442650000000     0.955120000000    -0.409752   
O5       O      0.447220000000     0.434270000000     0.058500000000    -0.371216   
O6       O      0.039500000000     0.043830000000     0.059530000000    -0.370968   
O7       O      0.440640000000     0.030670000000     0.058240000000    -0.365201   
O8       O      0.046100000000     0.447460000000     0.059070000000    -0.356715   
O9       O      0.046890000000     0.446550000000     0.452630000000    -0.33891    
O10      O      0.442680000000     0.031040000000     0.453850000000    -0.366409   
O11      O      0.041600000000     0.043090000000     0.452130000000    -0.397006   
O12      O      0.447810000000     0.434610000000     0.453750000000    -0.407778   
O13      O      0.439740000000     0.443600000000     0.557060000000    -0.372179   
O14      O      0.051360000000     0.033970000000     0.555180000000    -0.399052   
O15      O      0.454040000000     0.041350000000     0.556460000000    -0.357035   
O16      O      0.036950000000     0.436290000000     0.555480000000    -0.374091   
O17      O      0.266960000000     0.269970000000     0.916100000000    -0.474227   
O18      O      0.276030000000     0.262040000000     0.095520000000    -0.456129   
O19      O      0.316090000000     0.221250000000     0.994820000000    -0.426551   
O20      O      0.226980000000     0.311030000000     0.017210000000    -0.405528   
O21      O      0.171000000000     0.257010000000     0.996720000000    -0.428045   
O22      O      0.260580000000     0.167350000000     0.017630000000    -0.432698   
O23      O      0.211640000000     0.216370000000     0.096550000000    -0.462747   
O24      O      0.218690000000     0.207910000000     0.916930000000    -0.433164   
O25      O      0.277710000000     0.261960000000     0.416970000000    -0.435358   
O26      O      0.268980000000     0.270170000000     0.596510000000    -0.457054   
O27      O      0.318270000000     0.222010000000     0.518120000000    -0.403696   
O28      O      0.227530000000     0.310200000000     0.495680000000    -0.426662   
O29      O      0.171770000000     0.255610000000     0.514970000000    -0.435389   
O30      O      0.263250000000     0.167750000000     0.495060000000    -0.418557   
O31      O      0.219450000000     0.208910000000     0.595610000000    -0.42915    
O32      O      0.213240000000     0.216560000000     0.416070000000    -0.478495   
O33      O      0.036360000000     0.937500000000     0.956120000000    -0.367772   
O34      O      0.451340000000     0.540660000000     0.955470000000    -0.336941   
O35      O      0.048730000000     0.535490000000     0.956310000000    -0.400761   
O36      O      0.438990000000     0.942650000000     0.955120000000    -0.409721   
O37      O      0.447220000000     0.934270000000     0.058500000000    -0.371183   
O38      O      0.039500000000     0.543830000000     0.059530000000    -0.371256   
O39      O      0.440630000000     0.530670000000     0.058240000000    -0.365463   
O40      O      0.046100000000     0.947460000000     0.059070000000    -0.356704   
O41      O      0.046890000000     0.946550000000     0.452630000000    -0.338894   
O42      O      0.442680000000     0.531040000000     0.453850000000    -0.366697   
O43      O      0.041600000000     0.543090000000     0.452130000000    -0.397296   
O44      O      0.447810000000     0.934610000000     0.453750000000    -0.407765   
O45      O      0.439740000000     0.943600000000     0.557060000000    -0.372171   
O46      O      0.051360000000     0.533970000000     0.555180000000    -0.399356   
O47      O      0.454040000000     0.541350000000     0.556460000000    -0.357303   
O48      O      0.036950000000     0.936290000000     0.555480000000    -0.37406    
O49      O      0.266960000000     0.769970000000     0.916100000000    -0.474165   
O50      O      0.276030000000     0.762040000000     0.095520000000    -0.456204   
O51      O      0.316090000000     0.721260000000     0.994820000000    -0.426449   
O52      O      0.226980000000     0.811030000000     0.017210000000    -0.405473   
O53      O      0.171000000000     0.757010000000     0.996720000000    -0.42802    
O54      O      0.260580000000     0.667350000000     0.017630000000    -0.432674   
O55      O      0.211640000000     0.716380000000     0.096550000000    -0.46279    
O56      O      0.218690000000     0.707910000000     0.916930000000    -0.433165   
O57      O      0.277710000000     0.761960000000     0.416970000000    -0.435372   
O58      O      0.268980000000     0.770170000000     0.596510000000    -0.457079   
O59      O      0.318270000000     0.722010000000     0.518120000000    -0.403657   
O60      O      0.227530000000     0.810200000000     0.495680000000    -0.426755   
O61      O      0.171770000000     0.755610000000     0.514970000000    -0.435503   
O62      O      0.263250000000     0.667750000000     0.495060000000    -0.418572   
O63      O      0.219450000000     0.708910000000     0.595610000000    -0.429159   
O64      O      0.213240000000     0.716560000000     0.416070000000    -0.478512   
O65      O      0.536360000000     0.437500000000     0.956120000000    -0.368133   
O66      O      0.951340000000     0.040660000000     0.955470000000    -0.336653   
O67      O      0.548730000000     0.035490000000     0.956310000000    -0.400794   
O68      O      0.938990000000     0.442650000000     0.955120000000    -0.409716   
O69      O      0.947220000000     0.434270000000     0.058500000000    -0.371196   
O70      O      0.539500000000     0.043830000000     0.059530000000    -0.371319   
O71      O      0.940630000000     0.030670000000     0.058240000000    -0.365147   
O72      O      0.546100000000     0.447460000000     0.059070000000    -0.35703    
O73      O      0.546890000000     0.446550000000     0.452630000000    -0.33922    
O74      O      0.942680000000     0.031040000000     0.453850000000    -0.366378   
O75      O      0.541600000000     0.043090000000     0.452130000000    -0.397363   
O76      O      0.947810000000     0.434610000000     0.453750000000    -0.407774   
O77      O      0.939740000000     0.443600000000     0.557060000000    -0.37215    
O78      O      0.551360000000     0.033970000000     0.555180000000    -0.399393   
O79      O      0.954040000000     0.041350000000     0.556460000000    -0.357023   
O80      O      0.536950000000     0.436290000000     0.555480000000    -0.374411   
O81      O      0.766960000000     0.269970000000     0.916100000000    -0.474284   
O82      O      0.776030000000     0.262040000000     0.095520000000    -0.456132   
O83      O      0.816090000000     0.221250000000     0.994820000000    -0.42657    
O84      O      0.726980000000     0.311030000000     0.017210000000    -0.405513   
O85      O      0.670990000000     0.257010000000     0.996720000000    -0.427961   
O86      O      0.760580000000     0.167350000000     0.017630000000    -0.432778   
O87      O      0.711640000000     0.216370000000     0.096550000000    -0.46274    
O88      O      0.718690000000     0.207910000000     0.916930000000    -0.433118   
O89      O      0.777710000000     0.261960000000     0.416970000000    -0.435362   
O90      O      0.768980000000     0.270170000000     0.596510000000    -0.457057   
O91      O      0.818270000000     0.222010000000     0.518120000000    -0.403675   
O92      O      0.727530000000     0.310200000000     0.495680000000    -0.426671   
O93      O      0.671780000000     0.255610000000     0.514970000000    -0.435521   
O94      O      0.763240000000     0.167750000000     0.495060000000    -0.41851    
O95      O      0.719450000000     0.208910000000     0.595610000000    -0.429173   
O96      O      0.713240000000     0.216560000000     0.416070000000    -0.478514   
O97      O      0.536360000000     0.937500000000     0.956120000000    -0.368107   
O98      O      0.951340000000     0.540660000000     0.955470000000    -0.336923   
O99      O      0.548730000000     0.535490000000     0.956310000000    -0.401099   
O100     O      0.938990000000     0.942650000000     0.955120000000    -0.409668   
O101     O      0.947220000000     0.934270000000     0.058500000000    -0.371133   
O102     O      0.539500000000     0.543830000000     0.059530000000    -0.371607   
O103     O      0.940630000000     0.530670000000     0.058240000000    -0.365433   
O104     O      0.546100000000     0.947460000000     0.059070000000    -0.357028   
O105     O      0.546890000000     0.946550000000     0.452630000000    -0.339209   
O106     O      0.942680000000     0.531040000000     0.453850000000    -0.366663   
O107     O      0.541590000000     0.543090000000     0.452130000000    -0.397649   
O108     O      0.947810000000     0.934610000000     0.453750000000    -0.407688   
O109     O      0.939740000000     0.943600000000     0.557060000000    -0.372095   
O110     O      0.551360000000     0.533970000000     0.555180000000    -0.399673   
O111     O      0.954040000000     0.541350000000     0.556460000000    -0.35729    
O112     O      0.536950000000     0.936290000000     0.555480000000    -0.374396   
O113     O      0.766960000000     0.769970000000     0.916100000000    -0.474165   
O114     O      0.776030000000     0.762040000000     0.095520000000    -0.456235   
O115     O      0.816100000000     0.721260000000     0.994820000000    -0.426295   
O116     O      0.726990000000     0.811030000000     0.017210000000    -0.405441   
O117     O      0.670990000000     0.757010000000     0.996720000000    -0.427894   
O118     O      0.760580000000     0.667350000000     0.017630000000    -0.432722   
O119     O      0.711640000000     0.716380000000     0.096550000000    -0.462706   
O120     O      0.718690000000     0.707910000000     0.916930000000    -0.433151   
O121     O      0.777710000000     0.761960000000     0.416970000000    -0.435373   
O122     O      0.768980000000     0.770170000000     0.596510000000    -0.45708    
O123     O      0.818270000000     0.722010000000     0.518120000000    -0.403668   
O124     O      0.727530000000     0.810200000000     0.495680000000    -0.426657   
O125     O      0.671770000000     0.755610000000     0.514970000000    -0.43552    
O126     O      0.763250000000     0.667750000000     0.495060000000    -0.418571   
O127     O      0.719450000000     0.708910000000     0.595610000000    -0.429165   
O128     O      0.713240000000     0.716560000000     0.416070000000    -0.478517   


