data_structure

_audit_creation_method RASPA-1.0
_audit_creation_date 2023-6-4
_audit_author_name 'Poobodin Mano'

_cell_length_a    28.7911
_cell_length_b    29.6899
_cell_length_c    21.0935
_cell_angle_alpha 89.9989
_cell_angle_beta  89.9989
_cell_angle_gamma 96.5861
_cell_volume      17911.8

_symmetry_cell_setting          triclinic
_symmetry_space_group_name_Hall 'P 1'
_symmetry_space_group_name_H-M  'P 1'
_symmetry_Int_Tables_number     1

_symmetry_equiv_pos_as_xyz 'x,y,z'

loop_
_atom_site_label
_atom_site_type_symbol
_atom_site_fract_x
_atom_site_fract_y
_atom_site_fract_z
_atom_site_charge
C1       C      0.074220000000     0.434610000000     0.024150000000     0.38782    
C2       C      0.449160000000     0.058120000000     0.017410000000     0.387926   
C3       C      0.079260000000     0.062080000000     0.020880000000     0.424397   
C4       C      0.444050000000     0.430630000000     0.020410000000     0.425067   
C5       C      0.073970000000     0.434900000000     0.519280000000     0.38877    
C6       C      0.448880000000     0.058380000000     0.526020000000     0.388858   
C7       C      0.078980000000     0.062370000000     0.522580000000     0.425438   
C8       C      0.443800000000     0.430880000000     0.522980000000     0.425865   
C9       C      0.258350000000     0.249420000000     0.902170000000     0.476028   
C10      C      0.264500000000     0.242300000000     0.141310000000     0.478403   
C11      C      0.321880000000     0.187530000000     0.016320000000     0.441948   
C12      C      0.202130000000     0.305780000000     0.026620000000     0.441937   
C13      C      0.264280000000     0.242490000000     0.402160000000     0.478562   
C14      C      0.258160000000     0.249640000000     0.641300000000     0.476135   
C15      C      0.321610000000     0.187790000000     0.527130000000     0.441978   
C16      C      0.201870000000     0.306070000000     0.516840000000     0.442005   
C17      C      0.219770000000     0.229980000000     0.804770000000     0.0321811  
C18      C      0.294630000000     0.271950000000     0.804640000000     0.0328698  
C19      C      0.294580000000     0.272010000000     0.738790000000     0.0329213  
C20      C      0.219720000000     0.230050000000     0.738740000000     0.0322107  
C21      C      0.242030000000     0.205960000000     0.238730000000     0.0323838  
C22      C      0.289890000000     0.276140000000     0.238810000000     0.0329212  
C23      C      0.289820000000     0.276200000000     0.304630000000     0.0328308  
C24      C      0.241960000000     0.206020000000     0.304780000000     0.0324441  
C25      C      0.101970000000     0.368500000000     0.474360000000     0.0280468  
C26      C      0.141970000000     0.405260000000     0.560420000000     0.0285292  
C27      C      0.175400000000     0.373990000000     0.557820000000     0.0326387  
C28      C      0.132840000000     0.334610000000     0.475920000000     0.0326597  
C29      C      0.377450000000     0.392520000000     0.475150000000     0.0380986  
C30      C      0.408600000000     0.364040000000     0.569620000000     0.0375283  
C31      C      0.374960000000     0.327280000000     0.567680000000     0.0300387  
C32      C      0.342360000000     0.357060000000     0.475590000000     0.0294423  
C33      C      0.390570000000     0.159490000000     0.487030000000     0.0327019  
C34      C      0.348200000000     0.119670000000     0.568730000000     0.0328787  
C35      C      0.381740000000     0.088270000000     0.570620000000     0.0282494  
C36      C      0.421300000000     0.125690000000     0.484720000000     0.0286789  
C37      C      0.119840000000     0.123870000000     0.469540000000     0.0379281  
C38      C      0.139300000000     0.106590000000     0.575770000000     0.0382691  
C39      C      0.174330000000     0.142130000000     0.575220000000     0.0302895  
C40      C      0.153260000000     0.160840000000     0.470560000000     0.0307277  
C41      C      0.102210000000     0.368210000000     0.069070000000     0.0278883  
C42      C      0.142220000000     0.404970000000     0.983010000000     0.0291031  
C43      C      0.175650000000     0.373700000000     0.985620000000     0.0333063  
C44      C      0.133080000000     0.334320000000     0.067520000000     0.032549   
C45      C      0.377700000000     0.392270000000     0.068230000000     0.0379916  
C46      C      0.408840000000     0.363790000000     0.973770000000     0.0381171  
C47      C      0.375200000000     0.327030000000     0.975710000000     0.0307207  
C48      C      0.342610000000     0.356800000000     0.067810000000     0.029331   
C49      C      0.421580000000     0.125440000000     0.058710000000     0.0284964  
C50      C      0.382020000000     0.088020000000     0.972810000000     0.0287845  
C51      C      0.348480000000     0.119420000000     0.974710000000     0.0335559  
C52      C      0.390850000000     0.159230000000     0.056410000000     0.0325966  
C53      C      0.120130000000     0.123570000000     0.073950000000     0.0376978  
C54      C      0.139600000000     0.106290000000     0.967720000000     0.038825   
C55      C      0.174630000000     0.141840000000     0.968280000000     0.0309595  
C56      C      0.153550000000     0.160530000000     0.072930000000     0.0307399  
C57      C      0.074220000000     0.934610000000     0.024150000000     0.387803   
C58      C      0.449160000000     0.558120000000     0.017410000000     0.388      
C59      C      0.079260000000     0.562080000000     0.020880000000     0.424485   
C60      C      0.444050000000     0.930630000000     0.020410000000     0.425025   
C61      C      0.073970000000     0.934890000000     0.519280000000     0.388659   
C62      C      0.448880000000     0.558380000000     0.526020000000     0.388915   
C63      C      0.078980000000     0.562370000000     0.522580000000     0.425471   
C64      C      0.443800000000     0.930880000000     0.522980000000     0.425857   
C65      C      0.258350000000     0.749420000000     0.902170000000     0.476029   
C66      C      0.264500000000     0.742300000000     0.141310000000     0.478421   
C67      C      0.321880000000     0.687530000000     0.016320000000     0.441972   
C68      C      0.202130000000     0.805790000000     0.026620000000     0.441864   
C69      C      0.264280000000     0.742490000000     0.402160000000     0.478559   
C70      C      0.258160000000     0.749640000000     0.641300000000     0.47613    
C71      C      0.321610000000     0.687780000000     0.527130000000     0.441973   
C72      C      0.201870000000     0.806070000000     0.516840000000     0.442001   
C73      C      0.219770000000     0.729980000000     0.804770000000     0.0321544  
C74      C      0.294630000000     0.771950000000     0.804640000000     0.032883   
C75      C      0.294580000000     0.772010000000     0.738790000000     0.0328646  
C76      C      0.219720000000     0.730050000000     0.738740000000     0.0322519  
C77      C      0.242030000000     0.705960000000     0.238730000000     0.0323761  
C78      C      0.289890000000     0.776140000000     0.238810000000     0.0329163  
C79      C      0.289820000000     0.776200000000     0.304630000000     0.0328245  
C80      C      0.241960000000     0.706020000000     0.304780000000     0.032435   
C81      C      0.101970000000     0.868500000000     0.474360000000     0.0280379  
C82      C      0.141970000000     0.905260000000     0.560420000000     0.0285169  
C83      C      0.175400000000     0.873990000000     0.557820000000     0.0326185  
C84      C      0.132840000000     0.834610000000     0.475920000000     0.0326452  
C85      C      0.377450000000     0.892520000000     0.475150000000     0.038084   
C86      C      0.408600000000     0.864040000000     0.569620000000     0.0375266  
C87      C      0.374960000000     0.827280000000     0.567680000000     0.0300202  
C88      C      0.342360000000     0.857060000000     0.475590000000     0.029429   
C89      C      0.390570000000     0.659490000000     0.487030000000     0.0327256  
C90      C      0.348200000000     0.619670000000     0.568730000000     0.0328074  
C91      C      0.381740000000     0.588280000000     0.570620000000     0.0282762  
C92      C      0.421300000000     0.625690000000     0.484720000000     0.0286374  
C93      C      0.119840000000     0.623870000000     0.469540000000     0.0379134  
C94      C      0.139300000000     0.606590000000     0.575770000000     0.0382519  
C95      C      0.174330000000     0.642130000000     0.575220000000     0.0302717  
C96      C      0.153260000000     0.660840000000     0.470560000000     0.0307091  
C97      C      0.102210000000     0.868210000000     0.069070000000     0.0278909  
C98      C      0.142220000000     0.904970000000     0.983010000000     0.0290808  
C99      C      0.175650000000     0.873700000000     0.985620000000     0.0332921  
C100     C      0.133080000000     0.834320000000     0.067520000000     0.0325442  
C101     C      0.377700000000     0.892270000000     0.068230000000     0.0379926  
C102     C      0.408840000000     0.863790000000     0.973770000000     0.0381086  
C103     C      0.375200000000     0.827030000000     0.975710000000     0.0307128  
C104     C      0.342610000000     0.856810000000     0.067810000000     0.0292752  
C105     C      0.421590000000     0.625440000000     0.058710000000     0.0284623  
C106     C      0.382020000000     0.588020000000     0.972810000000     0.0287721  
C107     C      0.348480000000     0.619420000000     0.974710000000     0.0335282  
C108     C      0.390850000000     0.659230000000     0.056410000000     0.0325978  
C109     C      0.120130000000     0.623560000000     0.073950000000     0.0377203  
C110     C      0.139600000000     0.606290000000     0.967720000000     0.0388147  
C111     C      0.174630000000     0.641840000000     0.968280000000     0.0309373  
C112     C      0.153550000000     0.660530000000     0.072930000000     0.0307188  
C113     C      0.574220000000     0.434610000000     0.024150000000     0.387976   
C114     C      0.949160000000     0.058120000000     0.017410000000     0.387798   
C115     C      0.579260000000     0.062080000000     0.020880000000     0.424486   
C116     C      0.944050000000     0.430630000000     0.020410000000     0.42497    
C117     C      0.573970000000     0.434900000000     0.519280000000     0.388853   
C118     C      0.948880000000     0.058380000000     0.526020000000     0.388771   
C119     C      0.578980000000     0.062370000000     0.522580000000     0.425534   
C120     C      0.943810000000     0.430880000000     0.522980000000     0.425798   
C121     C      0.758350000000     0.249420000000     0.902170000000     0.475859   
C122     C      0.764490000000     0.242300000000     0.141310000000     0.478415   
C123     C      0.821880000000     0.187530000000     0.016320000000     0.442035   
C124     C      0.702130000000     0.305780000000     0.026620000000     0.441944   
C125     C      0.764280000000     0.242490000000     0.402160000000     0.478482   
C126     C      0.758160000000     0.249640000000     0.641300000000     0.476139   
C127     C      0.821610000000     0.187790000000     0.527130000000     0.441984   
C128     C      0.701870000000     0.306070000000     0.516840000000     0.44201    
C129     C      0.719770000000     0.229980000000     0.804770000000     0.0321813  
C130     C      0.794630000000     0.271950000000     0.804640000000     0.0328665  
C131     C      0.794580000000     0.272010000000     0.738790000000     0.0329517  
C132     C      0.719720000000     0.230050000000     0.738740000000     0.0322259  
C133     C      0.742030000000     0.205960000000     0.238730000000     0.0323914  
C134     C      0.789890000000     0.276140000000     0.238810000000     0.0329422  
C135     C      0.789820000000     0.276200000000     0.304630000000     0.032839   
C136     C      0.741960000000     0.206020000000     0.304780000000     0.0324531  
C137     C      0.601970000000     0.368500000000     0.474360000000     0.0280832  
C138     C      0.641970000000     0.405260000000     0.560420000000     0.0285536  
C139     C      0.675400000000     0.373990000000     0.557820000000     0.0326492  
C140     C      0.632840000000     0.334610000000     0.475920000000     0.0326865  
C141     C      0.877450000000     0.392520000000     0.475150000000     0.0381044  
C142     C      0.908610000000     0.364040000000     0.569620000000     0.0375223  
C143     C      0.874960000000     0.327280000000     0.567680000000     0.0300928  
C144     C      0.842360000000     0.357060000000     0.475590000000     0.0294763  
C145     C      0.890570000000     0.159490000000     0.487030000000     0.03275    
C146     C      0.848200000000     0.119670000000     0.568730000000     0.0328876  
C147     C      0.881740000000     0.088270000000     0.570620000000     0.0282997  
C148     C      0.921300000000     0.125690000000     0.484720000000     0.0286993  
C149     C      0.619840000000     0.123870000000     0.469540000000     0.0379625  
C150     C      0.639300000000     0.106590000000     0.575770000000     0.0382942  
C151     C      0.674330000000     0.142130000000     0.575220000000     0.0303059  
C152     C      0.653260000000     0.160840000000     0.470560000000     0.0307461  
C153     C      0.602220000000     0.368210000000     0.069070000000     0.0279444  
C154     C      0.642220000000     0.404970000000     0.983010000000     0.02914    
C155     C      0.675650000000     0.373700000000     0.985620000000     0.0333112  
C156     C      0.633080000000     0.334320000000     0.067520000000     0.03256    
C157     C      0.877690000000     0.392270000000     0.068230000000     0.0379903  
C158     C      0.908840000000     0.363790000000     0.973770000000     0.0381469  
C159     C      0.875200000000     0.327030000000     0.975710000000     0.0307526  
C160     C      0.842600000000     0.356800000000     0.067810000000     0.029335   
C161     C      0.921580000000     0.125440000000     0.058710000000     0.0285275  
C162     C      0.882020000000     0.088020000000     0.972810000000     0.0288038  
C163     C      0.848480000000     0.119420000000     0.974710000000     0.0335784  
C164     C      0.890850000000     0.159230000000     0.056410000000     0.0326369  
C165     C      0.620130000000     0.123570000000     0.073950000000     0.0377301  
C166     C      0.639600000000     0.106290000000     0.967720000000     0.0388519  
C167     C      0.674630000000     0.141840000000     0.968280000000     0.0309712  
C168     C      0.653550000000     0.160530000000     0.072930000000     0.0307588  
C169     C      0.574220000000     0.934610000000     0.024150000000     0.387884   
C170     C      0.949160000000     0.558120000000     0.017410000000     0.387947   
C171     C      0.579260000000     0.562080000000     0.020880000000     0.424575   
C172     C      0.944050000000     0.930630000000     0.020410000000     0.424867   
C173     C      0.573970000000     0.934890000000     0.519280000000     0.388744   
C174     C      0.948880000000     0.558380000000     0.526020000000     0.388841   
C175     C      0.578980000000     0.562370000000     0.522580000000     0.425561   
C176     C      0.943800000000     0.930880000000     0.522980000000     0.425757   
C177     C      0.758350000000     0.749420000000     0.902170000000     0.476034   
C178     C      0.764500000000     0.742300000000     0.141310000000     0.47843    
C179     C      0.821880000000     0.687530000000     0.016320000000     0.44183    
C180     C      0.702120000000     0.805790000000     0.026620000000     0.441814   
C181     C      0.764280000000     0.742490000000     0.402160000000     0.478559   
C182     C      0.758160000000     0.749640000000     0.641300000000     0.476127   
C183     C      0.821610000000     0.687780000000     0.527130000000     0.441901   
C184     C      0.701870000000     0.806070000000     0.516840000000     0.442003   
C185     C      0.719770000000     0.729980000000     0.804770000000     0.0321948  
C186     C      0.794630000000     0.771950000000     0.804640000000     0.0328638  
C187     C      0.794570000000     0.772010000000     0.738790000000     0.0329366  
C188     C      0.719710000000     0.730050000000     0.738740000000     0.0322012  
C189     C      0.742030000000     0.705960000000     0.238730000000     0.0323878  
C190     C      0.789890000000     0.776140000000     0.238810000000     0.0329306  
C191     C      0.789820000000     0.776200000000     0.304630000000     0.0328375  
C192     C      0.741960000000     0.706020000000     0.304780000000     0.0324454  
C193     C      0.601970000000     0.868500000000     0.474360000000     0.0280737  
C194     C      0.641970000000     0.905260000000     0.560420000000     0.028541   
C195     C      0.675400000000     0.873990000000     0.557820000000     0.0326285  
C196     C      0.632840000000     0.834610000000     0.475920000000     0.0326712  
C197     C      0.877460000000     0.892520000000     0.475150000000     0.0381514  
C198     C      0.908600000000     0.864040000000     0.569620000000     0.0375588  
C199     C      0.874960000000     0.827280000000     0.567680000000     0.0300496  
C200     C      0.842360000000     0.857060000000     0.475590000000     0.0294279  
C201     C      0.890570000000     0.659490000000     0.487030000000     0.0327549  
C202     C      0.848200000000     0.619670000000     0.568730000000     0.032824   
C203     C      0.881740000000     0.588280000000     0.570620000000     0.028278   
C204     C      0.921300000000     0.625690000000     0.484720000000     0.0286892  
C205     C      0.619840000000     0.623870000000     0.469540000000     0.0379521  
C206     C      0.639300000000     0.606590000000     0.575770000000     0.0382791  
C207     C      0.674330000000     0.642130000000     0.575220000000     0.0302813  
C208     C      0.653260000000     0.660840000000     0.470560000000     0.0307236  
C209     C      0.602210000000     0.868210000000     0.069070000000     0.0279243  
C210     C      0.642220000000     0.904970000000     0.983010000000     0.0290856  
C211     C      0.675640000000     0.873700000000     0.985620000000     0.0333297  
C212     C      0.633080000000     0.834320000000     0.067520000000     0.0325743  
C213     C      0.877700000000     0.892270000000     0.068230000000     0.038038   
C214     C      0.908840000000     0.863790000000     0.973770000000     0.038118   
C215     C      0.875200000000     0.827030000000     0.975710000000     0.0307474  
C216     C      0.842610000000     0.856810000000     0.067810000000     0.0292828  
C217     C      0.921580000000     0.625440000000     0.058710000000     0.028521   
C218     C      0.882020000000     0.588020000000     0.972810000000     0.028784   
C219     C      0.848490000000     0.619420000000     0.974710000000     0.0335526  
C220     C      0.890850000000     0.659230000000     0.056410000000     0.0326148  
C221     C      0.620130000000     0.623560000000     0.073950000000     0.0377541  
C222     C      0.639600000000     0.606290000000     0.967720000000     0.038841   
C223     C      0.674630000000     0.641840000000     0.968280000000     0.0309511  
C224     C      0.653550000000     0.660530000000     0.072930000000     0.0307368  
Cu1      Cu     0.512700000000     0.995390000000     0.962290000000     0.854491   
Cu2      Cu     0.010580000000     0.497230000000     0.079060000000     0.853638   
Cu3      Cu     0.510320000000     0.997510000000     0.464370000000     0.854724   
Cu4      Cu     0.012430000000     0.495660000000     0.581140000000     0.853674   
Cu5      Cu     0.296150000000     0.278870000000     0.021750000000     1.14471    
Cu6      Cu     0.227150000000     0.213850000000     0.021510000000     1.11852    
Cu7      Cu     0.295890000000     0.279130000000     0.521690000000     1.14556    
Cu8      Cu     0.226880000000     0.214120000000     0.521970000000     1.11941    
Cu9      Cu     0.512700000000     0.495400000000     0.962290000000     0.854982   
Cu10     Cu     0.010580000000     0.997230000000     0.079060000000     0.853      
Cu11     Cu     0.510320000000     0.497510000000     0.464370000000     0.855411   
Cu12     Cu     0.012430000000     0.995660000000     0.581140000000     0.853069   
Cu13     Cu     0.296150000000     0.778870000000     0.021750000000     1.14478    
Cu14     Cu     0.227150000000     0.713840000000     0.021510000000     1.11861    
Cu15     Cu     0.295890000000     0.779130000000     0.521690000000     1.14555    
Cu16     Cu     0.226880000000     0.714120000000     0.521970000000     1.11942    
Cu17     Cu     0.012700000000     0.995390000000     0.962290000000     0.853603   
Cu18     Cu     0.510580000000     0.497230000000     0.079060000000     0.85454    
Cu19     Cu     0.010320000000     0.997510000000     0.464370000000     0.853788   
Cu20     Cu     0.512430000000     0.495660000000     0.581140000000     0.854553   
Cu21     Cu     0.796150000000     0.278870000000     0.021750000000     1.1448     
Cu22     Cu     0.727150000000     0.213850000000     0.021510000000     1.11848    
Cu23     Cu     0.795890000000     0.279130000000     0.521690000000     1.14555    
Cu24     Cu     0.726880000000     0.214120000000     0.521970000000     1.11942    
Cu25     Cu     0.012700000000     0.495400000000     0.962290000000     0.854234   
Cu26     Cu     0.510580000000     0.997230000000     0.079060000000     0.853832   
Cu27     Cu     0.010320000000     0.497510000000     0.464370000000     0.85458    
Cu28     Cu     0.512430000000     0.995660000000     0.581140000000     0.85394    
Cu29     Cu     0.796150000000     0.778870000000     0.021750000000     1.14474    
Cu30     Cu     0.727150000000     0.713840000000     0.021510000000     1.11869    
Cu31     Cu     0.795890000000     0.779130000000     0.521690000000     1.14545    
Cu32     Cu     0.726880000000     0.714120000000     0.521970000000     1.11942    
H1       H      0.189510000000     0.212870000000     0.828980000000     0.0376961  
H2       H      0.325040000000     0.288960000000     0.828630000000     0.037058   
H3       H      0.324950000000     0.289070000000     0.714780000000     0.0370048  
H4       H      0.189420000000     0.212980000000     0.714570000000     0.0376328  
H5       H      0.222580000000     0.177570000000     0.214530000000     0.0373763  
H6       H      0.309340000000     0.304630000000     0.214820000000     0.0370564  
H7       H      0.309230000000     0.304720000000     0.328590000000     0.0370906  
H8       H      0.222470000000     0.177670000000     0.329010000000     0.0373796  
H9       H      0.073750000000     0.365160000000     0.440050000000     0.0369208  
H10      H      0.146770000000     0.432220000000     0.595320000000     0.0369711  
H11      H      0.204130000000     0.377960000000     0.591360000000     0.0376818  
H12      H      0.127460000000     0.306930000000     0.442210000000     0.035387   
H13      H      0.377340000000     0.417940000000     0.438210000000     0.0360693  
H14      H      0.434550000000     0.365710000000     0.607110000000     0.0362757  
H15      H      0.374810000000     0.300930000000     0.603030000000     0.0316255  
H16      H      0.315190000000     0.355390000000     0.440080000000     0.031861   
H17      H      0.395890000000     0.187260000000     0.453440000000     0.0376331  
H18      H      0.319460000000     0.115550000000     0.602230000000     0.0353252  
H19      H      0.377100000000     0.060960000000     0.604970000000     0.0369086  
H20      H      0.449270000000     0.129290000000     0.450010000000     0.036899   
H21      H      0.098610000000     0.117750000000     0.427240000000     0.0350377  
H22      H      0.134830000000     0.085590000000     0.617920000000     0.035118   
H23      H      0.196980000000     0.148280000000     0.615900000000     0.0304871  
H24      H      0.157980000000     0.182930000000     0.429780000000     0.0306484  
H25      H      0.073990000000     0.364880000000     0.103380000000     0.0369202  
H26      H      0.147020000000     0.431930000000     0.948120000000     0.0369759  
H27      H      0.204380000000     0.377680000000     0.952090000000     0.0377297  
H28      H      0.127700000000     0.306650000000     0.101240000000     0.0353723  
H29      H      0.377580000000     0.417700000000     0.105170000000     0.0360403  
H30      H      0.434790000000     0.365460000000     0.936270000000     0.0362592  
H31      H      0.375060000000     0.300680000000     0.940370000000     0.0316165  
H32      H      0.315430000000     0.355150000000     0.103320000000     0.0318629  
H33      H      0.449550000000     0.129030000000     0.093420000000     0.0368981  
H34      H      0.377380000000     0.060720000000     0.938460000000     0.0369134  
H35      H      0.319740000000     0.115300000000     0.941210000000     0.035335   
H36      H      0.396180000000     0.187000000000     0.090000000000     0.0375968  
H37      H      0.098890000000     0.117440000000     0.116240000000     0.0350739  
H38      H      0.135140000000     0.085300000000     0.925560000000     0.0350768  
H39      H      0.197290000000     0.148000000000     0.927600000000     0.0304537  
H40      H      0.158260000000     0.182620000000     0.113710000000     0.0306473  
H41      H      0.189510000000     0.712870000000     0.828980000000     0.0376925  
H42      H      0.325040000000     0.788960000000     0.828630000000     0.0370439  
H43      H      0.324950000000     0.789070000000     0.714780000000     0.0370083  
H44      H      0.189420000000     0.712980000000     0.714570000000     0.0376132  
H45      H      0.222580000000     0.677570000000     0.214530000000     0.0373516  
H46      H      0.309340000000     0.804630000000     0.214820000000     0.0370462  
H47      H      0.309230000000     0.804720000000     0.328590000000     0.0370811  
H48      H      0.222470000000     0.677670000000     0.329010000000     0.0373568  
H49      H      0.073750000000     0.865160000000     0.440050000000     0.0369119  
H50      H      0.146770000000     0.932220000000     0.595320000000     0.0369105  
H51      H      0.204130000000     0.877960000000     0.591360000000     0.0376553  
H52      H      0.127460000000     0.806940000000     0.442210000000     0.0353816  
H53      H      0.377340000000     0.917940000000     0.438210000000     0.0360209  
H54      H      0.434550000000     0.865700000000     0.607110000000     0.0362577  
H55      H      0.374810000000     0.800940000000     0.603030000000     0.0316225  
H56      H      0.315190000000     0.855390000000     0.440080000000     0.0318449  
H57      H      0.395890000000     0.687260000000     0.453440000000     0.0376178  
H58      H      0.319460000000     0.615550000000     0.602230000000     0.0353039  
H59      H      0.377100000000     0.560960000000     0.604970000000     0.0368219  
H60      H      0.449270000000     0.629290000000     0.450010000000     0.0368811  
H61      H      0.098610000000     0.617750000000     0.427240000000     0.0350017  
H62      H      0.134830000000     0.585590000000     0.617920000000     0.0350589  
H63      H      0.196980000000     0.648280000000     0.615900000000     0.0304703  
H64      H      0.157980000000     0.682920000000     0.429780000000     0.0306416  
H65      H      0.073980000000     0.864870000000     0.103380000000     0.0369104  
H66      H      0.147020000000     0.931930000000     0.948120000000     0.0369177  
H67      H      0.204380000000     0.877680000000     0.952090000000     0.0377001  
H68      H      0.127700000000     0.806650000000     0.101240000000     0.0353641  
H69      H      0.377580000000     0.917700000000     0.105170000000     0.0359911  
H70      H      0.434790000000     0.865460000000     0.936270000000     0.036251   
H71      H      0.375060000000     0.800680000000     0.940370000000     0.0316132  
H72      H      0.315430000000     0.855140000000     0.103320000000     0.0318623  
H73      H      0.449550000000     0.629030000000     0.093420000000     0.0368798  
H74      H      0.377380000000     0.560710000000     0.938460000000     0.036837   
H75      H      0.319740000000     0.615300000000     0.941210000000     0.0353025  
H76      H      0.396180000000     0.687000000000     0.090000000000     0.0375861  
H77      H      0.098890000000     0.617440000000     0.116240000000     0.0350279  
H78      H      0.135140000000     0.585300000000     0.925560000000     0.0350154  
H79      H      0.197290000000     0.647990000000     0.927600000000     0.0304276  
H80      H      0.158260000000     0.682620000000     0.113710000000     0.0306371  
H81      H      0.689510000000     0.212870000000     0.828980000000     0.0377294  
H82      H      0.825040000000     0.288960000000     0.828630000000     0.0370873  
H83      H      0.824960000000     0.289070000000     0.714780000000     0.0370225  
H84      H      0.689420000000     0.212980000000     0.714570000000     0.0376589  
H85      H      0.722580000000     0.177570000000     0.214530000000     0.0373865  
H86      H      0.809340000000     0.304630000000     0.214820000000     0.0370789  
H87      H      0.809230000000     0.304720000000     0.328590000000     0.0371153  
H88      H      0.722470000000     0.177670000000     0.329010000000     0.0373922  
H89      H      0.573750000000     0.365160000000     0.440050000000     0.0370038  
H90      H      0.646770000000     0.432220000000     0.595320000000     0.0369818  
H91      H      0.704130000000     0.377960000000     0.591360000000     0.0376909  
H92      H      0.627460000000     0.306930000000     0.442210000000     0.0354293  
H93      H      0.877350000000     0.417940000000     0.438210000000     0.036115   
H94      H      0.934550000000     0.365710000000     0.607110000000     0.0363781  
H95      H      0.874810000000     0.300930000000     0.603030000000     0.0316535  
H96      H      0.815180000000     0.355390000000     0.440080000000     0.0318668  
H97      H      0.895900000000     0.187260000000     0.453440000000     0.0376777  
H98      H      0.819460000000     0.115550000000     0.602230000000     0.0353366  
H99      H      0.877100000000     0.060960000000     0.604970000000     0.0369296  
H100     H      0.949270000000     0.129290000000     0.450010000000     0.0370131  
H101     H      0.598610000000     0.117750000000     0.427240000000     0.0350991  
H102     H      0.634830000000     0.085590000000     0.617920000000     0.0351374  
H103     H      0.696990000000     0.148280000000     0.615900000000     0.0304951  
H104     H      0.657980000000     0.182930000000     0.429780000000     0.0306797  
H105     H      0.573990000000     0.364880000000     0.103380000000     0.0369977  
H106     H      0.647030000000     0.431930000000     0.948120000000     0.0369844  
H107     H      0.704380000000     0.377680000000     0.952090000000     0.0377406  
H108     H      0.627700000000     0.306650000000     0.101240000000     0.0354153  
H109     H      0.877580000000     0.417700000000     0.105170000000     0.0360843  
H110     H      0.934790000000     0.365460000000     0.936270000000     0.036357   
H111     H      0.875060000000     0.300680000000     0.940370000000     0.0316474  
H112     H      0.815430000000     0.355150000000     0.103320000000     0.0318704  
H113     H      0.949550000000     0.129030000000     0.093420000000     0.0370129  
H114     H      0.877380000000     0.060720000000     0.938460000000     0.0369435  
H115     H      0.819740000000     0.115300000000     0.941210000000     0.0353415  
H116     H      0.896180000000     0.187000000000     0.090000000000     0.0376466  
H117     H      0.598890000000     0.117440000000     0.116240000000     0.035133   
H118     H      0.635140000000     0.085300000000     0.925560000000     0.0350957  
H119     H      0.697290000000     0.148000000000     0.927600000000     0.03046    
H120     H      0.658260000000     0.182620000000     0.113710000000     0.0306685  
H121     H      0.689510000000     0.712870000000     0.828980000000     0.0377118  
H122     H      0.825040000000     0.788960000000     0.828630000000     0.0370753  
H123     H      0.824950000000     0.789070000000     0.714780000000     0.0370162  
H124     H      0.689420000000     0.712980000000     0.714570000000     0.0376573  
H125     H      0.722580000000     0.677570000000     0.214530000000     0.0373617  
H126     H      0.809340000000     0.804630000000     0.214820000000     0.0370685  
H127     H      0.809230000000     0.804720000000     0.328590000000     0.0371037  
H128     H      0.722470000000     0.677670000000     0.329010000000     0.0373668  
H129     H      0.573750000000     0.865160000000     0.440050000000     0.0369934  
H130     H      0.646770000000     0.932220000000     0.595320000000     0.0369205  
H131     H      0.704130000000     0.877960000000     0.591360000000     0.037664   
H132     H      0.627460000000     0.806940000000     0.442210000000     0.0354224  
H133     H      0.877340000000     0.917940000000     0.438210000000     0.0360402  
H134     H      0.934550000000     0.865700000000     0.607110000000     0.0363539  
H135     H      0.874820000000     0.800940000000     0.603030000000     0.0316575  
H136     H      0.815190000000     0.855390000000     0.440080000000     0.0318588  
H137     H      0.895890000000     0.687260000000     0.453440000000     0.0376769  
H138     H      0.819470000000     0.615550000000     0.602230000000     0.0353128  
H139     H      0.877100000000     0.560960000000     0.604970000000     0.0368594  
H140     H      0.949270000000     0.629290000000     0.450010000000     0.0369934  
H141     H      0.598600000000     0.617750000000     0.427240000000     0.0350614  
H142     H      0.634830000000     0.585590000000     0.617920000000     0.0350779  
H143     H      0.696980000000     0.648280000000     0.615900000000     0.0304792  
H144     H      0.657980000000     0.682920000000     0.429780000000     0.0306648  
H145     H      0.573980000000     0.864870000000     0.103380000000     0.0369932  
H146     H      0.647020000000     0.931930000000     0.948120000000     0.0369325  
H147     H      0.704380000000     0.877680000000     0.952090000000     0.0377029  
H148     H      0.627700000000     0.806650000000     0.101240000000     0.035402   
H149     H      0.877580000000     0.917700000000     0.105170000000     0.0360164  
H150     H      0.934790000000     0.865460000000     0.936270000000     0.0363513  
H151     H      0.875050000000     0.800680000000     0.940370000000     0.0316488  
H152     H      0.815430000000     0.855140000000     0.103320000000     0.0318723  
H153     H      0.949550000000     0.629030000000     0.093420000000     0.0369901  
H154     H      0.877380000000     0.560710000000     0.938460000000     0.0368642  
H155     H      0.819740000000     0.615300000000     0.941210000000     0.0353129  
H156     H      0.896180000000     0.687000000000     0.090000000000     0.0376455  
H157     H      0.598890000000     0.617440000000     0.116240000000     0.0350889  
H158     H      0.635140000000     0.585300000000     0.925560000000     0.0350356  
H159     H      0.697290000000     0.647990000000     0.927600000000     0.0304369  
H160     H      0.658260000000     0.682620000000     0.113710000000     0.0306581  
N1       N      0.257440000000     0.250570000000     0.837490000000    -0.190167   
N2       N      0.257340000000     0.250700000000     0.705990000000    -0.190228   
N3       N      0.265600000000     0.241290000000     0.205990000000    -0.19062    
N4       N      0.265470000000     0.241390000000     0.337490000000    -0.190652   
N5       N      0.105790000000     0.403200000000     0.517770000000    -0.170075   
N6       N      0.170240000000     0.337930000000     0.516700000000    -0.180591   
N7       N      0.409820000000     0.395950000000     0.522750000000    -0.185351   
N8       N      0.342330000000     0.325070000000     0.521300000000    -0.250531   
N9       N      0.353220000000     0.155900000000     0.527850000000    -0.180414   
N10      N      0.417580000000     0.090550000000     0.527390000000    -0.170101   
N11      N      0.112870000000     0.097430000000     0.522500000000    -0.18493    
N12      N      0.180120000000     0.168560000000     0.522920000000    -0.247695   
N13      N      0.106040000000     0.402910000000     0.025660000000    -0.170358   
N14      N      0.170480000000     0.337650000000     0.026750000000    -0.180884   
N15      N      0.410070000000     0.395700000000     0.020630000000    -0.185662   
N16      N      0.342580000000     0.324810000000     0.022100000000    -0.250926   
N17      N      0.417860000000     0.090300000000     0.016040000000    -0.170337   
N18      N      0.353500000000     0.155650000000     0.015590000000    -0.180844   
N19      N      0.113170000000     0.097130000000     0.020980000000    -0.185135   
N20      N      0.180410000000     0.168260000000     0.020580000000    -0.248009   
N21      N      0.257440000000     0.750570000000     0.837490000000    -0.19017    
N22      N      0.257330000000     0.750700000000     0.705990000000    -0.190228   
N23      N      0.265600000000     0.741290000000     0.205990000000    -0.190626   
N24      N      0.265470000000     0.741390000000     0.337490000000    -0.190653   
N25      N      0.105790000000     0.903200000000     0.517770000000    -0.170108   
N26      N      0.170240000000     0.837930000000     0.516700000000    -0.180591   
N27      N      0.409820000000     0.895950000000     0.522750000000    -0.185359   
N28      N      0.342330000000     0.825070000000     0.521300000000    -0.250529   
N29      N      0.353220000000     0.655910000000     0.527850000000    -0.180487   
N30      N      0.417570000000     0.590550000000     0.527390000000    -0.170111   
N31      N      0.112870000000     0.597430000000     0.522500000000    -0.184958   
N32      N      0.180120000000     0.668560000000     0.522920000000    -0.247696   
N33      N      0.106040000000     0.902910000000     0.025660000000    -0.170366   
N34      N      0.170480000000     0.837650000000     0.026750000000    -0.18092    
N35      N      0.410070000000     0.895700000000     0.020630000000    -0.185666   
N36      N      0.342580000000     0.824810000000     0.022100000000    -0.250924   
N37      N      0.417860000000     0.590300000000     0.016040000000    -0.170368   
N38      N      0.353500000000     0.655650000000     0.015590000000    -0.180854   
N39      N      0.113170000000     0.597130000000     0.020980000000    -0.185183   
N40      N      0.180410000000     0.668260000000     0.020580000000    -0.248076   
N41      N      0.757440000000     0.250570000000     0.837490000000    -0.190128   
N42      N      0.757340000000     0.250700000000     0.705990000000    -0.190229   
N43      N      0.765600000000     0.241290000000     0.205990000000    -0.190616   
N44      N      0.765470000000     0.241390000000     0.337490000000    -0.190631   
N45      N      0.605790000000     0.403200000000     0.517770000000    -0.170072   
N46      N      0.670240000000     0.337930000000     0.516700000000    -0.180586   
N47      N      0.909820000000     0.395950000000     0.522750000000    -0.185265   
N48      N      0.842330000000     0.325070000000     0.521300000000    -0.250534   
N49      N      0.853220000000     0.155900000000     0.527850000000    -0.180409   
N50      N      0.917570000000     0.090550000000     0.527390000000    -0.170033   
N51      N      0.612870000000     0.097430000000     0.522500000000    -0.184932   
N52      N      0.680120000000     0.168560000000     0.522920000000    -0.247691   
N53      N      0.606040000000     0.402910000000     0.025660000000    -0.170368   
N54      N      0.670480000000     0.337650000000     0.026750000000    -0.180876   
N55      N      0.910070000000     0.395700000000     0.020630000000    -0.185605   
N56      N      0.842580000000     0.324810000000     0.022100000000    -0.250929   
N57      N      0.917860000000     0.090300000000     0.016040000000    -0.170287   
N58      N      0.853500000000     0.155650000000     0.015590000000    -0.180858   
N59      N      0.613170000000     0.097130000000     0.020980000000    -0.185137   
N60      N      0.680410000000     0.168260000000     0.020580000000    -0.247998   
N61      N      0.757440000000     0.750570000000     0.837490000000    -0.190168   
N62      N      0.757330000000     0.750700000000     0.705990000000    -0.190223   
N63      N      0.765600000000     0.741290000000     0.205990000000    -0.190624   
N64      N      0.765470000000     0.741390000000     0.337490000000    -0.190649   
N65      N      0.605790000000     0.903200000000     0.517770000000    -0.170106   
N66      N      0.670240000000     0.837930000000     0.516700000000    -0.180585   
N67      N      0.909820000000     0.895950000000     0.522750000000    -0.185328   
N68      N      0.842330000000     0.825070000000     0.521300000000    -0.25051    
N69      N      0.853220000000     0.655910000000     0.527850000000    -0.180462   
N70      N      0.917580000000     0.590550000000     0.527390000000    -0.170093   
N71      N      0.612870000000     0.597430000000     0.522500000000    -0.184962   
N72      N      0.680120000000     0.668560000000     0.522920000000    -0.247692   
N73      N      0.606040000000     0.902910000000     0.025660000000    -0.170359   
N74      N      0.670480000000     0.837650000000     0.026750000000    -0.180952   
N75      N      0.910060000000     0.895700000000     0.020630000000    -0.185585   
N76      N      0.842580000000     0.824810000000     0.022100000000    -0.250917   
N77      N      0.917860000000     0.590300000000     0.016040000000    -0.170333   
N78      N      0.853500000000     0.655650000000     0.015590000000    -0.180824   
N79      N      0.613170000000     0.597130000000     0.020980000000    -0.185184   
N80      N      0.680410000000     0.668260000000     0.020580000000    -0.24808    
O1       O      0.063980000000     0.452510000000     0.971000000000    -0.380905   
O2       O      0.460870000000     0.038840000000     0.965820000000    -0.377709   
O3       O      0.061930000000     0.047580000000     0.967930000000    -0.413948   
O4       O      0.464190000000     0.442570000000     0.968130000000    -0.41451    
O5       O      0.455860000000     0.450420000000     0.072710000000    -0.414632   
O6       O      0.064670000000     0.044790000000     0.073740000000    -0.413852   
O7       O      0.467150000000     0.047520000000     0.070520000000    -0.382064   
O8       O      0.054590000000     0.446440000000     0.075630000000    -0.379489   
O9       O      0.054350000000     0.446730000000     0.467790000000    -0.379655   
O10      O      0.466890000000     0.047780000000     0.472900000000    -0.382242   
O11      O      0.064400000000     0.045090000000     0.469710000000    -0.414036   
O12      O      0.455610000000     0.450690000000     0.470680000000    -0.414746   
O13      O      0.463930000000     0.442820000000     0.575270000000    -0.415126   
O14      O      0.061640000000     0.047860000000     0.575520000000    -0.414693   
O15      O      0.460590000000     0.039100000000     0.577600000000    -0.378432   
O16      O      0.063720000000     0.452790000000     0.572430000000    -0.381653   
O17      O      0.293690000000     0.267630000000     0.932040000000    -0.478327   
O18      O      0.285410000000     0.275580000000     0.111560000000    -0.480771   
O19      O      0.334870000000     0.228490000000     0.032080000000    -0.443051   
O20      O      0.244600000000     0.316960000000     0.010760000000    -0.445331   
O21      O      0.189450000000     0.264420000000     0.040900000000    -0.437128   
O22      O      0.278900000000     0.176530000000     0.002540000000    -0.438256   
O23      O      0.242020000000     0.210460000000     0.110370000000    -0.472295   
O24      O      0.224260000000     0.229660000000     0.933030000000    -0.471227   
O25      O      0.285170000000     0.275810000000     0.431880000000    -0.480831   
O26      O      0.293470000000     0.267870000000     0.611390000000    -0.478973   
O27      O      0.334590000000     0.228750000000     0.511370000000    -0.443036   
O28      O      0.244350000000     0.317240000000     0.532690000000    -0.445067   
O29      O      0.189200000000     0.264700000000     0.502560000000    -0.437126   
O30      O      0.278620000000     0.176790000000     0.540930000000    -0.437831   
O31      O      0.224040000000     0.229900000000     0.610470000000    -0.471772   
O32      O      0.241790000000     0.210690000000     0.433130000000    -0.472602   
O33      O      0.063980000000     0.952510000000     0.971000000000    -0.380943   
O34      O      0.460870000000     0.538850000000     0.965820000000    -0.378017   
O35      O      0.061930000000     0.547580000000     0.967930000000    -0.414288   
O36      O      0.464190000000     0.942570000000     0.968130000000    -0.414515   
O37      O      0.455860000000     0.950420000000     0.072710000000    -0.414582   
O38      O      0.064670000000     0.544790000000     0.073740000000    -0.414173   
O39      O      0.467160000000     0.547520000000     0.070520000000    -0.382375   
O40      O      0.054590000000     0.946430000000     0.075630000000    -0.379454   
O41      O      0.054350000000     0.946730000000     0.467790000000    -0.379567   
O42      O      0.466880000000     0.547780000000     0.472900000000    -0.382519   
O43      O      0.064400000000     0.545080000000     0.469710000000    -0.414367   
O44      O      0.455610000000     0.950680000000     0.470680000000    -0.414715   
O45      O      0.463930000000     0.942820000000     0.575270000000    -0.415103   
O46      O      0.061640000000     0.547860000000     0.575520000000    -0.414974   
O47      O      0.460590000000     0.539100000000     0.577600000000    -0.378726   
O48      O      0.063720000000     0.952790000000     0.572430000000    -0.381588   
O49      O      0.293690000000     0.767630000000     0.932040000000    -0.478337   
O50      O      0.285410000000     0.775580000000     0.111560000000    -0.480785   
O51      O      0.334870000000     0.728490000000     0.032080000000    -0.443068   
O52      O      0.244600000000     0.816960000000     0.010760000000    -0.445335   
O53      O      0.189450000000     0.764420000000     0.040900000000    -0.436979   
O54      O      0.278900000000     0.676530000000     0.002540000000    -0.438346   
O55      O      0.242020000000     0.710460000000     0.110370000000    -0.472336   
O56      O      0.224260000000     0.729660000000     0.933030000000    -0.471219   
O57      O      0.285170000000     0.775810000000     0.431880000000    -0.480833   
O58      O      0.293470000000     0.767870000000     0.611390000000    -0.478973   
O59      O      0.334590000000     0.728750000000     0.511370000000    -0.44295    
O60      O      0.244350000000     0.817240000000     0.532690000000    -0.445076   
O61      O      0.189200000000     0.764700000000     0.502560000000    -0.437123   
O62      O      0.278620000000     0.676790000000     0.540930000000    -0.437858   
O63      O      0.224040000000     0.729900000000     0.610470000000    -0.471769   
O64      O      0.241790000000     0.710690000000     0.433130000000    -0.472612   
O65      O      0.563990000000     0.452510000000     0.971000000000    -0.380928   
O66      O      0.960870000000     0.038840000000     0.965820000000    -0.377299   
O67      O      0.561930000000     0.047580000000     0.967930000000    -0.413998   
O68      O      0.964190000000     0.442570000000     0.968130000000    -0.414082   
O69      O      0.955860000000     0.450420000000     0.072710000000    -0.414199   
O70      O      0.564670000000     0.044790000000     0.073740000000    -0.413918   
O71      O      0.967160000000     0.047520000000     0.070520000000    -0.381653   
O72      O      0.554600000000     0.446440000000     0.075630000000    -0.379535   
O73      O      0.554350000000     0.446730000000     0.467790000000    -0.379669   
O74      O      0.966880000000     0.047780000000     0.472900000000    -0.381815   
O75      O      0.564400000000     0.045090000000     0.469710000000    -0.414103   
O76      O      0.955610000000     0.450690000000     0.470680000000    -0.414361   
O77      O      0.963930000000     0.442820000000     0.575270000000    -0.414732   
O78      O      0.561640000000     0.047860000000     0.575520000000    -0.414738   
O79      O      0.960590000000     0.039100000000     0.577600000000    -0.378045   
O80      O      0.563720000000     0.452790000000     0.572430000000    -0.381688   
O81      O      0.793690000000     0.267630000000     0.932040000000    -0.478287   
O82      O      0.785410000000     0.275580000000     0.111560000000    -0.480735   
O83      O      0.834860000000     0.228490000000     0.032080000000    -0.443119   
O84      O      0.744600000000     0.316960000000     0.010760000000    -0.445346   
O85      O      0.689450000000     0.264420000000     0.040900000000    -0.437107   
O86      O      0.778900000000     0.176530000000     0.002540000000    -0.438268   
O87      O      0.742020000000     0.210460000000     0.110370000000    -0.472322   
O88      O      0.724250000000     0.229660000000     0.933030000000    -0.471091   
O89      O      0.785170000000     0.275810000000     0.431880000000    -0.480803   
O90      O      0.793470000000     0.267870000000     0.611390000000    -0.478965   
O91      O      0.834590000000     0.228750000000     0.511370000000    -0.443013   
O92      O      0.744350000000     0.317240000000     0.532690000000    -0.445066   
O93      O      0.689200000000     0.264700000000     0.502560000000    -0.4371     
O94      O      0.778620000000     0.176790000000     0.540930000000    -0.437841   
O95      O      0.724040000000     0.229900000000     0.610470000000    -0.471763   
O96      O      0.741780000000     0.210690000000     0.433130000000    -0.47256    
O97      O      0.563980000000     0.952510000000     0.971000000000    -0.380981   
O98      O      0.960880000000     0.538850000000     0.965820000000    -0.377672   
O99      O      0.561930000000     0.547580000000     0.967930000000    -0.414321   
O100     O      0.964190000000     0.942570000000     0.968130000000    -0.414064   
O101     O      0.955860000000     0.950420000000     0.072710000000    -0.414154   
O102     O      0.564670000000     0.544790000000     0.073740000000    -0.414232   
O103     O      0.967150000000     0.547520000000     0.070520000000    -0.381957   
O104     O      0.554590000000     0.946430000000     0.075630000000    -0.379471   
O105     O      0.554350000000     0.946730000000     0.467790000000    -0.379599   
O106     O      0.966890000000     0.547780000000     0.472900000000    -0.382119   
O107     O      0.564400000000     0.545080000000     0.469710000000    -0.414433   
O108     O      0.955610000000     0.950680000000     0.470680000000    -0.414284   
O109     O      0.963930000000     0.942820000000     0.575270000000    -0.414666   
O110     O      0.561640000000     0.547860000000     0.575520000000    -0.415023   
O111     O      0.960590000000     0.539100000000     0.577600000000    -0.378326   
O112     O      0.563720000000     0.952790000000     0.572430000000    -0.381628   
O113     O      0.793690000000     0.767630000000     0.932040000000    -0.478329   
O114     O      0.785410000000     0.775580000000     0.111560000000    -0.480773   
O115     O      0.834870000000     0.728490000000     0.032080000000    -0.442996   
O116     O      0.744600000000     0.816960000000     0.010760000000    -0.44524    
O117     O      0.689450000000     0.764420000000     0.040900000000    -0.436967   
O118     O      0.778890000000     0.676530000000     0.002540000000    -0.438298   
O119     O      0.742020000000     0.710460000000     0.110370000000    -0.472343   
O120     O      0.724260000000     0.729660000000     0.933030000000    -0.471217   
O121     O      0.785170000000     0.775810000000     0.431880000000    -0.480817   
O122     O      0.793470000000     0.767870000000     0.611390000000    -0.478955   
O123     O      0.834600000000     0.728750000000     0.511370000000    -0.442825   
O124     O      0.744350000000     0.817240000000     0.532690000000    -0.445062   
O125     O      0.689200000000     0.764700000000     0.502560000000    -0.4371     
O126     O      0.778620000000     0.676790000000     0.540930000000    -0.437848   
O127     O      0.724040000000     0.729900000000     0.610470000000    -0.471755   
O128     O      0.741790000000     0.710690000000     0.433130000000    -0.472614   


