data_structure

_audit_creation_method RASPA-1.0
_audit_creation_date 2023-5-23
_audit_author_name 'Poobodin Mano'

_cell_length_a    43.4841
_cell_length_b    43.484
_cell_length_c    43.3737
_cell_angle_alpha 90
_cell_angle_beta  90
_cell_angle_gamma 90
_cell_volume      82013.7

_symmetry_cell_setting          triclinic
_symmetry_space_group_name_Hall 'P 1'
_symmetry_space_group_name_H-M  'P 1'
_symmetry_Int_Tables_number     1

_symmetry_equiv_pos_as_xyz 'x,y,z'

loop_
_atom_site_label
_atom_site_type_symbol
_atom_site_fract_x
_atom_site_fract_y
_atom_site_fract_z
_atom_site_charge
C1       C      0.505700000000     0.006220000000     0.194150000000     0.405591   
C2       C      0.005630000000     0.506040000000     0.071340000000     0.398642   
C3       C      0.005730000000     0.067460000000     0.132780000000     0.398096   
C4       C      0.505590000000     0.444790000000     0.132940000000     0.403966   
C5       C      0.005620000000     0.256200000000     0.071330000000     0.398634   
C6       C      0.505740000000     0.256040000000     0.194140000000     0.406189   
C7       C      0.005640000000     0.194790000000     0.132780000000     0.398392   
C8       C      0.005690000000     0.317460000000     0.132930000000     0.398183   
C9       C      0.256460000000     0.506240000000     0.194020000000     0.406006   
C10      C      0.256690000000     0.506010000000     0.071220000000     0.40447    
C11      C      0.257740000000     0.067440000000     0.132610000000     0.403746   
C12      C      0.255440000000     0.444790000000     0.132800000000     0.404166   
C13      C      0.256680000000     0.256180000000     0.071210000000     0.404402   
C14      C      0.256490000000     0.256030000000     0.194020000000     0.405971   
C15      C      0.257740000000     0.194790000000     0.132630000000     0.404098   
C16      C      0.255440000000     0.317440000000     0.132770000000     0.404121   
C17      C      0.005650000000     0.506010000000     0.943670000000     0.398592   
C18      C      0.005780000000     0.506220000000     0.820860000000     0.400146   
C19      C      0.004550000000     0.067430000000     0.882270000000     0.398099   
C20      C      0.006860000000     0.444780000000     0.882080000000     0.398194   
C21      C      0.005640000000     0.256190000000     0.943660000000     0.398578   
C22      C      0.005800000000     0.256000000000     0.820850000000     0.400427   
C23      C      0.006860000000     0.317430000000     0.882080000000     0.397966   
C24      C      0.004560000000     0.194770000000     0.882250000000     0.398109   
C25      C      0.256770000000     0.505960000000     0.943550000000     0.404454   
C26      C      0.256660000000     0.506180000000     0.820730000000     0.405798   
C27      C      0.256700000000     0.444720000000     0.881930000000     0.404021   
C28      C      0.256750000000     0.067380000000     0.882120000000     0.404042   
C29      C      0.256750000000     0.256110000000     0.943540000000     0.404449   
C30      C      0.256660000000     0.255980000000     0.820730000000     0.406023   
C31      C      0.256800000000     0.317380000000     0.881950000000     0.404034   
C32      C      0.256650000000     0.194710000000     0.882080000000     0.403973   
C33      C      0.006080000000     0.006630000000     0.443650000000     0.398056   
C34      C      0.005860000000     0.006490000000     0.320840000000     0.399803   
C35      C      0.067300000000     0.006650000000     0.382020000000     0.397906   
C36      C      0.444630000000     0.006500000000     0.382220000000     0.398404   
C37      C      0.006010000000     0.255870000000     0.320850000000     0.405464   
C38      C      0.006250000000     0.255790000000     0.443650000000     0.403788   
C39      C      0.444810000000     0.254680000000     0.382260000000     0.403994   
C40      C      0.067460000000     0.256980000000     0.382050000000     0.403595   
C41      C      0.256100000000     0.506500000000     0.320740000000     0.406118   
C42      C      0.255860000000     0.506640000000     0.443550000000     0.404486   
C43      C      0.194630000000     0.506550000000     0.381930000000     0.404005   
C44      C      0.317300000000     0.506600000000     0.382140000000     0.40419    
C45      C      0.256240000000     0.255880000000     0.320750000000     0.406108   
C46      C      0.256060000000     0.255790000000     0.443560000000     0.404372   
C47      C      0.194810000000     0.256980000000     0.381990000000     0.403994   
C48      C      0.317470000000     0.254680000000     0.382160000000     0.403894   
C49      C      0.006020000000     0.506500000000     0.694130000000     0.40559    
C50      C      0.006250000000     0.506630000000     0.571320000000     0.403698   
C51      C      0.067480000000     0.505430000000     0.632930000000     0.403767   
C52      C      0.444820000000     0.507720000000     0.632690000000     0.404113   
C53      C      0.006120000000     0.255840000000     0.694140000000     0.405256   
C54      C      0.006350000000     0.255770000000     0.571330000000     0.403941   
C55      C      0.067590000000     0.255820000000     0.632950000000     0.403746   
C56      C      0.444920000000     0.255780000000     0.632730000000     0.404157   
C57      C      0.256350000000     0.506490000000     0.694030000000     0.405995   
C58      C      0.255990000000     0.506640000000     0.571220000000     0.404393   
C59      C      0.194830000000     0.505430000000     0.632880000000     0.403863   
C60      C      0.317480000000     0.507720000000     0.632560000000     0.404053   
C61      C      0.256390000000     0.255840000000     0.694040000000     0.405931   
C62      C      0.256140000000     0.255770000000     0.571230000000     0.404446   
C63      C      0.194920000000     0.255730000000     0.632870000000     0.404008   
C64      C      0.317590000000     0.255880000000     0.632640000000     0.404187   
C65      C      0.397330000000     0.282920000000     0.632630000000     0.0302653  
C66      C      0.397300000000     0.228690000000     0.632810000000     0.0303734  
C67      C      0.365180000000     0.228750000000     0.632670000000     0.0302286  
C68      C      0.365210000000     0.282990000000     0.632720000000     0.0301912  
C69      C      0.115180000000     0.228680000000     0.632970000000     0.0301387  
C70      C      0.115220000000     0.282920000000     0.633100000000     0.0301806  
C71      C      0.147330000000     0.282850000000     0.632960000000     0.0302982  
C72      C      0.147300000000     0.228620000000     0.633070000000     0.0303157  
C73      C      0.397250000000     0.035160000000     0.634020000000     0.0295652  
C74      C      0.397170000000     0.481000000000     0.631160000000     0.030099   
C75      C      0.365140000000     0.481000000000     0.631120000000     0.0301589  
C76      C      0.365060000000     0.035160000000     0.633990000000     0.0294057  
C77      C      0.115140000000     0.032160000000     0.631630000000     0.0293537  
C78      C      0.115060000000     0.477990000000     0.634310000000     0.0302379  
C79      C      0.147250000000     0.477990000000     0.634300000000     0.0302463  
C80      C      0.147170000000     0.032160000000     0.631610000000     0.0293604  
C81      C      0.256100000000     0.282890000000     0.491300000000     0.0304785  
C82      C      0.256000000000     0.228660000000     0.491290000000     0.0306258  
C83      C      0.255950000000     0.228650000000     0.523490000000     0.0304402  
C84      C      0.256190000000     0.282890000000     0.523490000000     0.030519   
C85      C      0.255010000000     0.479550000000     0.491290000000     0.0304747  
C86      C      0.256700000000     0.033760000000     0.491290000000     0.0297443  
C87      C      0.256720000000     0.033760000000     0.523490000000     0.0297673  
C88      C      0.255050000000     0.479550000000     0.523490000000     0.0304935  
C89      C      0.505490000000     0.228670000000     0.491390000000     0.0305076  
C90      C      0.007170000000     0.282880000000     0.491390000000     0.030003   
C91      C      0.007200000000     0.282870000000     0.523590000000     0.03019    
C92      C      0.505520000000     0.228670000000     0.523590000000     0.0305376  
C93      C      0.397160000000     0.281400000000     0.383670000000     0.0301751  
C94      C      0.397240000000     0.227250000000     0.380840000000     0.0303443  
C95      C      0.365040000000     0.227250000000     0.380810000000     0.0303415  
C96      C      0.365120000000     0.281400000000     0.383640000000     0.030167   
C97      C      0.115120000000     0.230240000000     0.383350000000     0.0300684  
C98      C      0.115040000000     0.284410000000     0.380620000000     0.0301905  
C99      C      0.147230000000     0.284410000000     0.380610000000     0.0303722  
C100     C      0.147160000000     0.230250000000     0.383330000000     0.0301869  
C101     C      0.506300000000     0.033770000000     0.491390000000     0.029717   
C102     C      0.006060000000     0.479540000000     0.491390000000     0.0301223  
C103     C      0.006190000000     0.479540000000     0.523590000000     0.0301428  
C104     C      0.506280000000     0.033770000000     0.523590000000     0.0297142  
C105     C      0.364930000000     0.033690000000     0.382040000000     0.0295327  
C106     C      0.364890000000     0.479460000000     0.382250000000     0.0302004  
C107     C      0.397010000000     0.479390000000     0.382160000000     0.030296   
C108     C      0.397040000000     0.033620000000     0.382170000000     0.0294952  
C109     C      0.114920000000     0.033760000000     0.381810000000     0.0293296  
C110     C      0.114890000000     0.479520000000     0.381950000000     0.0302298  
C111     C      0.147010000000     0.479460000000     0.381810000000     0.0302736  
C112     C      0.147040000000     0.033690000000     0.381900000000     0.0295449  
C113     C      0.236800000000     0.274570000000     0.773490000000     0.0321981  
C114     C      0.276380000000     0.237310000000     0.773440000000     0.0320521  
C115     C      0.275140000000     0.236110000000     0.741280000000     0.032212   
C116     C      0.237880000000     0.275690000000     0.741320000000     0.032068   
C117     C      0.276560000000     0.487900000000     0.773370000000     0.032111   
C118     C      0.236620000000     0.024760000000     0.773560000000     0.0315764  
C119     C      0.237680000000     0.026010000000     0.741390000000     0.0312293  
C120     C      0.275340000000     0.486820000000     0.741200000000     0.0322084  
C121     C      0.229610000000     0.397090000000     0.881780000000     0.0303625  
C122     C      0.283840000000     0.397120000000     0.881890000000     0.030252   
C123     C      0.283910000000     0.365010000000     0.881790000000     0.0301567  
C124     C      0.229670000000     0.364980000000     0.881900000000     0.0301871  
C125     C      0.283840000000     0.115010000000     0.881970000000     0.0303337  
C126     C      0.229610000000     0.114970000000     0.882170000000     0.0302515  
C127     C      0.229540000000     0.147090000000     0.882040000000     0.0301592  
C128     C      0.283780000000     0.147120000000     0.882070000000     0.0302079  
C129     C      0.486300000000     0.274740000000     0.773510000000     0.0322376  
C130     C      0.025480000000     0.237080000000     0.773650000000     0.0312763  
C131     C      0.024410000000     0.235900000000     0.741490000000     0.0314512  
C132     C      0.487550000000     0.275850000000     0.741340000000     0.0321354  
C133     C      0.486060000000     0.487720000000     0.773500000000     0.0321855  
C134     C      0.025620000000     0.024990000000     0.773660000000     0.0305648  
C135     C      0.024530000000     0.026200000000     0.741490000000     0.0306651  
C136     C      0.487260000000     0.486640000000     0.741340000000     0.0320882  
C137     C      0.480130000000     0.397120000000     0.883390000000     0.030148   
C138     C      0.034290000000     0.397200000000     0.880700000000     0.0295274  
C139     C      0.034290000000     0.365000000000     0.880690000000     0.0295314  
C140     C      0.480130000000     0.365080000000     0.883390000000     0.0301402  
C141     C      0.977130000000     0.115010000000     0.880870000000     0.0337962  
C142     C      0.531280000000     0.115080000000     0.883720000000     0.0301585  
C143     C      0.531280000000     0.147120000000     0.883720000000     0.0301347  
C144     C      0.977130000000     0.147200000000     0.880860000000     0.0338624  
C145     C      0.236630000000     0.237320000000     0.241240000000     0.0321125  
C146     C      0.276190000000     0.274600000000     0.241370000000     0.032047   
C147     C      0.274980000000     0.275700000000     0.273530000000     0.032238   
C148     C      0.237710000000     0.236140000000     0.273400000000     0.0321024  
C149     C      0.283840000000     0.256230000000     0.023490000000     0.0305087  
C150     C      0.229610000000     0.256130000000     0.023460000000     0.0306109  
C151     C      0.229620000000     0.256040000000     0.991260000000     0.0304289  
C152     C      0.283860000000     0.256280000000     0.991290000000     0.0305063  
C153     C      0.236750000000     0.025190000000     0.241210000000     0.0314755  
C154     C      0.275940000000     0.487530000000     0.241390000000     0.0321438  
C155     C      0.274690000000     0.486460000000     0.273560000000     0.0321811  
C156     C      0.237820000000     0.026400000000     0.273370000000     0.0312159  
C157     C      0.283840000000     0.006790000000     0.023500000000     0.0301427  
C158     C      0.229640000000     0.505110000000     0.023470000000     0.0305     
C159     C      0.229660000000     0.505090000000     0.991270000000     0.0305152  
C160     C      0.283860000000     0.006780000000     0.991300000000     0.030126   
C161     C      0.228010000000     0.365020000000     0.134150000000     0.0303852  
C162     C      0.282170000000     0.365100000000     0.131490000000     0.0301693  
C163     C      0.282170000000     0.397140000000     0.131500000000     0.030137   
C164     C      0.228000000000     0.397210000000     0.134170000000     0.0302218  
C165     C      0.285170000000     0.115020000000     0.134030000000     0.0302826  
C166     C      0.231010000000     0.115100000000     0.131150000000     0.0300618  
C167     C      0.231010000000     0.147140000000     0.131160000000     0.0301567  
C168     C      0.285170000000     0.147210000000     0.134040000000     0.0303055  
C169     C      0.485840000000     0.274390000000     0.241480000000     0.0321514  
C170     C      0.025780000000     0.237520000000     0.241350000000     0.0312236  
C171     C      0.024710000000     0.236320000000     0.273510000000     0.0315387  
C172     C      0.487050000000     0.275510000000     0.273640000000     0.032097   
C173     C      0.032710000000     0.257070000000     0.023590000000     0.029766   
C174     C      0.478500000000     0.255380000000     0.023590000000     0.0304639  
C175     C      0.478510000000     0.255380000000     0.991390000000     0.0305263  
C176     C      0.032720000000     0.257060000000     0.991400000000     0.0296895  
C177     C      0.025540000000     0.487700000000     0.241430000000     0.0312039  
C178     C      0.485950000000     0.024950000000     0.241400000000     0.0315185  
C179     C      0.487170000000     0.026190000000     0.273560000000     0.0311978  
C180     C      0.024430000000     0.486610000000     0.273590000000     0.0314851  
C181     C      0.032740000000     0.506120000000     0.023610000000     0.0297795  
C182     C      0.978510000000     0.005880000000     0.023600000000     0.0335317  
C183     C      0.978520000000     0.005940000000     0.991400000000     0.0336139  
C184     C      0.032750000000     0.506030000000     0.991410000000     0.0297026  
C185     C      0.478480000000     0.397170000000     0.133090000000     0.0302828  
C186     C      0.032710000000     0.397200000000     0.132980000000     0.0294908  
C187     C      0.032780000000     0.365090000000     0.133090000000     0.029519   
C188     C      0.478550000000     0.365050000000     0.132970000000     0.0302079  
C189     C      0.032780000000     0.147200000000     0.132720000000     0.0294761  
C190     C      0.478550000000     0.147170000000     0.132920000000     0.0303636  
C191     C      0.478610000000     0.115060000000     0.132810000000     0.0301818  
C192     C      0.032850000000     0.115080000000     0.132840000000     0.0293798  
C193     C      0.505700000000     0.506220000000     0.194150000000     0.406239   
C194     C      0.005630000000     0.006040000000     0.071340000000     0.398071   
C195     C      0.005730000000     0.567460000000     0.132780000000     0.398325   
C196     C      0.505590000000     0.944790000000     0.132940000000     0.403539   
C197     C      0.005620000000     0.756200000000     0.071330000000     0.398666   
C198     C      0.505740000000     0.756040000000     0.194140000000     0.406199   
C199     C      0.005640000000     0.694790000000     0.132780000000     0.398304   
C200     C      0.005690000000     0.817460000000     0.132930000000     0.398263   
C201     C      0.256460000000     0.006240000000     0.194020000000     0.405366   
C202     C      0.256690000000     0.006010000000     0.071220000000     0.403882   
C203     C      0.257730000000     0.567440000000     0.132610000000     0.403991   
C204     C      0.255440000000     0.944790000000     0.132800000000     0.403739   
C205     C      0.256680000000     0.756180000000     0.071210000000     0.404427   
C206     C      0.256490000000     0.756030000000     0.194020000000     0.405972   
C207     C      0.257740000000     0.694790000000     0.132630000000     0.4042     
C208     C      0.255440000000     0.817440000000     0.132770000000     0.404191   
C209     C      0.005650000000     0.006010000000     0.943670000000     0.398018   
C210     C      0.005780000000     0.006220000000     0.820860000000     0.399491   
C211     C      0.004550000000     0.567430000000     0.882270000000     0.39833    
C212     C      0.006860000000     0.944780000000     0.882080000000     0.397788   
C213     C      0.005640000000     0.756190000000     0.943660000000     0.398604   
C214     C      0.005800000000     0.756000000000     0.820850000000     0.400432   
C215     C      0.006860000000     0.817430000000     0.882080000000     0.398042   
C216     C      0.004560000000     0.694780000000     0.882250000000     0.398183   
C217     C      0.256770000000     0.005960000000     0.943550000000     0.403866   
C218     C      0.256660000000     0.006180000000     0.820730000000     0.405158   
C219     C      0.256700000000     0.944720000000     0.881930000000     0.403596   
C220     C      0.256750000000     0.567380000000     0.882120000000     0.404283   
C221     C      0.256750000000     0.756120000000     0.943540000000     0.404474   
C222     C      0.256660000000     0.755980000000     0.820730000000     0.406023   
C223     C      0.256800000000     0.817380000000     0.881950000000     0.404102   
C224     C      0.256650000000     0.694710000000     0.882080000000     0.403959   
C225     C      0.006080000000     0.506630000000     0.443650000000     0.403846   
C226     C      0.005860000000     0.506490000000     0.320840000000     0.405393   
C227     C      0.067300000000     0.506650000000     0.382020000000     0.403726   
C228     C      0.444630000000     0.506500000000     0.382220000000     0.404179   
C229     C      0.006010000000     0.755870000000     0.320850000000     0.405455   
C230     C      0.006250000000     0.755790000000     0.443650000000     0.403779   
C231     C      0.444810000000     0.754680000000     0.382260000000     0.403981   
C232     C      0.067460000000     0.756980000000     0.382050000000     0.403818   
C233     C      0.256100000000     0.006500000000     0.320740000000     0.400266   
C234     C      0.255860000000     0.006640000000     0.443550000000     0.398449   
C235     C      0.194630000000     0.006560000000     0.381930000000     0.398238   
C236     C      0.317300000000     0.006600000000     0.382140000000     0.398354   
C237     C      0.256240000000     0.755880000000     0.320750000000     0.406096   
C238     C      0.256060000000     0.755790000000     0.443560000000     0.404355   
C239     C      0.194810000000     0.756980000000     0.381990000000     0.403979   
C240     C      0.317470000000     0.754680000000     0.382160000000     0.403879   
C241     C      0.006020000000     0.006500000000     0.694130000000     0.399494   
C242     C      0.006250000000     0.006640000000     0.571320000000     0.397885   
C243     C      0.067480000000     0.005420000000     0.632930000000     0.397732   
C244     C      0.444820000000     0.007730000000     0.632690000000     0.398252   
C245     C      0.006120000000     0.755840000000     0.694140000000     0.405246   
C246     C      0.006350000000     0.755770000000     0.571330000000     0.403922   
C247     C      0.067590000000     0.755820000000     0.632950000000     0.403732   
C248     C      0.444920000000     0.755780000000     0.632730000000     0.403904   
C249     C      0.256350000000     0.006490000000     0.694030000000     0.400368   
C250     C      0.255990000000     0.006640000000     0.571220000000     0.39857    
C251     C      0.194830000000     0.005420000000     0.632880000000     0.398067   
C252     C      0.317480000000     0.007730000000     0.632560000000     0.398204   
C253     C      0.256390000000     0.755840000000     0.694040000000     0.405918   
C254     C      0.256140000000     0.755770000000     0.571230000000     0.404429   
C255     C      0.194920000000     0.755730000000     0.632870000000     0.403993   
C256     C      0.317590000000     0.755880000000     0.632640000000     0.40417    
C257     C      0.397330000000     0.782920000000     0.632630000000     0.0302563  
C258     C      0.397300000000     0.728690000000     0.632810000000     0.0303539  
C259     C      0.365180000000     0.728750000000     0.632670000000     0.0302229  
C260     C      0.365210000000     0.782990000000     0.632720000000     0.0302011  
C261     C      0.115180000000     0.728680000000     0.632970000000     0.0301285  
C262     C      0.115220000000     0.782920000000     0.633100000000     0.030189   
C263     C      0.147330000000     0.782850000000     0.632960000000     0.0303055  
C264     C      0.147300000000     0.728620000000     0.633070000000     0.0303049  
C265     C      0.397250000000     0.535160000000     0.634020000000     0.0303753  
C266     C      0.397170000000     0.981000000000     0.631160000000     0.0335906  
C267     C      0.365140000000     0.981000000000     0.631120000000     0.0336522  
C268     C      0.365060000000     0.535160000000     0.633990000000     0.0302168  
C269     C      0.115140000000     0.532160000000     0.631630000000     0.0301007  
C270     C      0.115060000000     0.977990000000     0.634310000000     0.0337619  
C271     C      0.147250000000     0.977990000000     0.634310000000     0.0337767  
C272     C      0.147170000000     0.532160000000     0.631610000000     0.0300897  
C273     C      0.256100000000     0.782890000000     0.491300000000     0.0304773  
C274     C      0.256000000000     0.728660000000     0.491290000000     0.0306135  
C275     C      0.255950000000     0.728650000000     0.523490000000     0.0304278  
C276     C      0.256190000000     0.782890000000     0.523490000000     0.0305178  
C277     C      0.255010000000     0.979560000000     0.491290000000     0.0340841  
C278     C      0.256700000000     0.533760000000     0.491290000000     0.030524   
C279     C      0.256720000000     0.533760000000     0.523490000000     0.0305455  
C280     C      0.255050000000     0.979550000000     0.523490000000     0.0339416  
C281     C      0.505490000000     0.728670000000     0.491390000000     0.0305014  
C282     C      0.007170000000     0.782870000000     0.491390000000     0.030113   
C283     C      0.007200000000     0.782870000000     0.523590000000     0.0301285  
C284     C      0.505520000000     0.728670000000     0.523590000000     0.0305164  
C285     C      0.397160000000     0.781400000000     0.383670000000     0.0301941  
C286     C      0.397240000000     0.727250000000     0.380840000000     0.0303338  
C287     C      0.365040000000     0.727250000000     0.380810000000     0.0303307  
C288     C      0.365120000000     0.781400000000     0.383640000000     0.0301861  
C289     C      0.115120000000     0.730240000000     0.383350000000     0.0300681  
C290     C      0.115040000000     0.784410000000     0.380620000000     0.0302091  
C291     C      0.147230000000     0.784410000000     0.380610000000     0.0303723  
C292     C      0.147160000000     0.730250000000     0.383330000000     0.0301733  
C293     C      0.506300000000     0.533770000000     0.491390000000     0.0304847  
C294     C      0.006060000000     0.979540000000     0.491390000000     0.0336194  
C295     C      0.006190000000     0.979540000000     0.523590000000     0.0336563  
C296     C      0.506280000000     0.533770000000     0.523590000000     0.0305027  
C297     C      0.364930000000     0.533690000000     0.382040000000     0.0303134  
C298     C      0.364890000000     0.979460000000     0.382250000000     0.0336942  
C299     C      0.397010000000     0.979390000000     0.382160000000     0.0338261  
C300     C      0.397040000000     0.533620000000     0.382170000000     0.0302565  
C301     C      0.114920000000     0.533760000000     0.381810000000     0.0301628  
C302     C      0.114890000000     0.979520000000     0.381950000000     0.0337082  
C303     C      0.147010000000     0.979460000000     0.381810000000     0.0338199  
C304     C      0.147040000000     0.533700000000     0.381900000000     0.0302082  
C305     C      0.236800000000     0.774570000000     0.773490000000     0.0322133  
C306     C      0.276380000000     0.737310000000     0.773440000000     0.0320561  
C307     C      0.275140000000     0.736110000000     0.741280000000     0.0322109  
C308     C      0.237880000000     0.775690000000     0.741320000000     0.0320865  
C309     C      0.276560000000     0.987900000000     0.773370000000     0.0362277  
C310     C      0.236620000000     0.524770000000     0.773560000000     0.032174   
C311     C      0.237680000000     0.526010000000     0.741390000000     0.0321315  
C312     C      0.275340000000     0.986820000000     0.741200000000     0.0356238  
C313     C      0.229610000000     0.897090000000     0.881780000000     0.0306546  
C314     C      0.283840000000     0.897120000000     0.881890000000     0.0305254  
C315     C      0.283910000000     0.865010000000     0.881790000000     0.0303564  
C316     C      0.229670000000     0.864980000000     0.881900000000     0.0303969  
C317     C      0.283840000000     0.615010000000     0.881970000000     0.0303497  
C318     C      0.229610000000     0.614970000000     0.882170000000     0.0302571  
C319     C      0.229540000000     0.647090000000     0.882040000000     0.030151   
C320     C      0.283780000000     0.647120000000     0.882070000000     0.0302066  
C321     C      0.486300000000     0.774740000000     0.773510000000     0.0322562  
C322     C      0.025480000000     0.737080000000     0.773650000000     0.0312848  
C323     C      0.024410000000     0.735900000000     0.741490000000     0.0314545  
C324     C      0.487550000000     0.775850000000     0.741340000000     0.032158   
C325     C      0.486060000000     0.987720000000     0.773500000000     0.0362547  
C326     C      0.025620000000     0.524990000000     0.773660000000     0.0311578  
C327     C      0.024530000000     0.526200000000     0.741490000000     0.0315705  
C328     C      0.487260000000     0.986640000000     0.741340000000     0.0355055  
C329     C      0.480130000000     0.897120000000     0.883390000000     0.0304226  
C330     C      0.034290000000     0.897200000000     0.880700000000     0.0298216  
C331     C      0.034290000000     0.865000000000     0.880690000000     0.029744   
C332     C      0.480130000000     0.865080000000     0.883390000000     0.0303414  
C333     C      0.977130000000     0.615010000000     0.880870000000     0.0338207  
C334     C      0.531280000000     0.615080000000     0.883720000000     0.0301682  
C335     C      0.531280000000     0.647120000000     0.883720000000     0.0301107  
C336     C      0.977130000000     0.647200000000     0.880860000000     0.0338465  
C337     C      0.236630000000     0.737320000000     0.241240000000     0.0321187  
C338     C      0.276190000000     0.774600000000     0.241370000000     0.0320629  
C339     C      0.274980000000     0.775700000000     0.273530000000     0.0322581  
C340     C      0.237710000000     0.736140000000     0.273400000000     0.0321037  
C341     C      0.283840000000     0.756230000000     0.023490000000     0.0305571  
C342     C      0.229610000000     0.756130000000     0.023460000000     0.03066    
C343     C      0.229620000000     0.756040000000     0.991260000000     0.0304772  
C344     C      0.283860000000     0.756280000000     0.991290000000     0.0305551  
C345     C      0.236750000000     0.525190000000     0.241210000000     0.0320587  
C346     C      0.275940000000     0.987530000000     0.241390000000     0.0362396  
C347     C      0.274690000000     0.986460000000     0.273560000000     0.0356049  
C348     C      0.237820000000     0.526390000000     0.273370000000     0.0321954  
C349     C      0.283840000000     0.506790000000     0.023500000000     0.0305396  
C350     C      0.229640000000     0.005110000000     0.023470000000     0.0300971  
C351     C      0.229660000000     0.005090000000     0.991270000000     0.0301123  
C352     C      0.283860000000     0.506780000000     0.991300000000     0.0305223  
C353     C      0.228010000000     0.865020000000     0.134150000000     0.0305925  
C354     C      0.282170000000     0.865100000000     0.131490000000     0.0303731  
C355     C      0.282170000000     0.897140000000     0.131500000000     0.030412   
C356     C      0.228000000000     0.897210000000     0.134170000000     0.0305101  
C357     C      0.285170000000     0.615010000000     0.134030000000     0.0303444  
C358     C      0.231010000000     0.615100000000     0.131150000000     0.0300644  
C359     C      0.231010000000     0.647130000000     0.131160000000     0.0301121  
C360     C      0.285170000000     0.647210000000     0.134040000000     0.030281   
C361     C      0.485840000000     0.774380000000     0.241480000000     0.0322453  
C362     C      0.025780000000     0.737520000000     0.241350000000     0.0312295  
C363     C      0.024710000000     0.736320000000     0.273510000000     0.0315387  
C364     C      0.487050000000     0.775510000000     0.273640000000     0.0320735  
C365     C      0.032710000000     0.757070000000     0.023590000000     0.0298165  
C366     C      0.478500000000     0.755380000000     0.023590000000     0.0305117  
C367     C      0.478510000000     0.755380000000     0.991390000000     0.0305735  
C368     C      0.032720000000     0.757060000000     0.991400000000     0.029739   
C369     C      0.025540000000     0.987690000000     0.241430000000     0.0351858  
C370     C      0.485950000000     0.524950000000     0.241400000000     0.0321327  
C371     C      0.487170000000     0.526190000000     0.273560000000     0.0320932  
C372     C      0.024430000000     0.986610000000     0.273590000000     0.0349661  
C373     C      0.032740000000     0.006120000000     0.023610000000     0.0293856  
C374     C      0.978510000000     0.505880000000     0.023600000000     0.0339377  
C375     C      0.978520000000     0.505940000000     0.991400000000     0.03402    
C376     C      0.032750000000     0.006030000000     0.991410000000     0.0293058  
C377     C      0.478480000000     0.897170000000     0.133090000000     0.0305707  
C378     C      0.032710000000     0.897200000000     0.132980000000     0.0297661  
C379     C      0.032780000000     0.865090000000     0.133090000000     0.0297242  
C380     C      0.478550000000     0.865050000000     0.132970000000     0.0304149  
C381     C      0.032780000000     0.647200000000     0.132720000000     0.0294615  
C382     C      0.478550000000     0.647170000000     0.132920000000     0.0303548  
C383     C      0.478610000000     0.615060000000     0.132810000000     0.0301888  
C384     C      0.032850000000     0.615080000000     0.132840000000     0.0293941  
C385     C      0.005700000000     0.006220000000     0.194150000000     0.399783   
C386     C      0.505630000000     0.506040000000     0.071340000000     0.404422   
C387     C      0.505730000000     0.067460000000     0.132780000000     0.403897   
C388     C      0.005590000000     0.444790000000     0.132940000000     0.398227   
C389     C      0.505620000000     0.256200000000     0.071330000000     0.404424   
C390     C      0.005740000000     0.256040000000     0.194140000000     0.400344   
C391     C      0.505640000000     0.194790000000     0.132780000000     0.404161   
C392     C      0.505690000000     0.317460000000     0.132930000000     0.404011   
C393     C      0.756460000000     0.506240000000     0.194020000000     0.405969   
C394     C      0.756690000000     0.506010000000     0.071220000000     0.40443    
C395     C      0.757730000000     0.067440000000     0.132610000000     0.403717   
C396     C      0.755440000000     0.444790000000     0.132800000000     0.403899   
C397     C      0.756680000000     0.256180000000     0.071210000000     0.40438    
C398     C      0.756500000000     0.256030000000     0.194020000000     0.405957   
C399     C      0.757740000000     0.194790000000     0.132630000000     0.403843   
C400     C      0.755440000000     0.317440000000     0.132770000000     0.404098   
C401     C      0.505650000000     0.506010000000     0.943670000000     0.404391   
C402     C      0.505780000000     0.506220000000     0.820860000000     0.40599    
C403     C      0.504550000000     0.067430000000     0.882270000000     0.403857   
C404     C      0.506860000000     0.444780000000     0.882080000000     0.40402    
C405     C      0.505640000000     0.256190000000     0.943660000000     0.404371   
C406     C      0.505800000000     0.256000000000     0.820850000000     0.406031   
C407     C      0.506860000000     0.317430000000     0.882080000000     0.40379    
C408     C      0.504560000000     0.194770000000     0.882250000000     0.403874   
C409     C      0.756770000000     0.505960000000     0.943550000000     0.404204   
C410     C      0.756660000000     0.506180000000     0.820730000000     0.40603    
C411     C      0.756700000000     0.444720000000     0.881930000000     0.404241   
C412     C      0.756750000000     0.067380000000     0.882120000000     0.404031   
C413     C      0.756750000000     0.256110000000     0.943540000000     0.404456   
C414     C      0.756670000000     0.255980000000     0.820730000000     0.406028   
C415     C      0.756800000000     0.317380000000     0.881950000000     0.40404    
C416     C      0.756650000000     0.194710000000     0.882080000000     0.403976   
C417     C      0.506080000000     0.006630000000     0.443650000000     0.398626   
C418     C      0.505860000000     0.006490000000     0.320840000000     0.400429   
C419     C      0.567300000000     0.006650000000     0.382020000000     0.398131   
C420     C      0.944630000000     0.006500000000     0.382220000000     0.397921   
C421     C      0.506010000000     0.255870000000     0.320850000000     0.406104   
C422     C      0.506250000000     0.255790000000     0.443650000000     0.404377   
C423     C      0.944810000000     0.254680000000     0.382260000000     0.403551   
C424     C      0.567460000000     0.256980000000     0.382050000000     0.403808   
C425     C      0.756100000000     0.506500000000     0.320740000000     0.406113   
C426     C      0.755860000000     0.506640000000     0.443550000000     0.404507   
C427     C      0.694630000000     0.506550000000     0.381930000000     0.404011   
C428     C      0.817300000000     0.506600000000     0.382140000000     0.404305   
C429     C      0.756240000000     0.255880000000     0.320750000000     0.406109   
C430     C      0.756060000000     0.255790000000     0.443560000000     0.404397   
C431     C      0.694810000000     0.256980000000     0.381990000000     0.403978   
C432     C      0.817470000000     0.254680000000     0.382160000000     0.403964   
C433     C      0.506020000000     0.506500000000     0.694130000000     0.406257   
C434     C      0.506250000000     0.506630000000     0.571320000000     0.404282   
C435     C      0.567480000000     0.505430000000     0.632930000000     0.404075   
C436     C      0.944820000000     0.507720000000     0.632690000000     0.403689   
C437     C      0.506120000000     0.255840000000     0.694140000000     0.405904   
C438     C      0.506350000000     0.255770000000     0.571330000000     0.404534   
C439     C      0.567590000000     0.255820000000     0.632950000000     0.403991   
C440     C      0.944920000000     0.255780000000     0.632730000000     0.403805   
C441     C      0.756350000000     0.506490000000     0.694030000000     0.405945   
C442     C      0.755990000000     0.506640000000     0.571220000000     0.404399   
C443     C      0.694830000000     0.505430000000     0.632880000000     0.403854   
C444     C      0.817480000000     0.507720000000     0.632560000000     0.404078   
C445     C      0.756390000000     0.255840000000     0.694040000000     0.405906   
C446     C      0.756140000000     0.255770000000     0.571230000000     0.40447    
C447     C      0.694920000000     0.255730000000     0.632870000000     0.40399    
C448     C      0.817590000000     0.255880000000     0.632640000000     0.404258   
C449     C      0.897330000000     0.282920000000     0.632630000000     0.0305497  
C450     C      0.897300000000     0.228690000000     0.632810000000     0.0306774  
C451     C      0.865180000000     0.228750000000     0.632670000000     0.0304352  
C452     C      0.865220000000     0.282990000000     0.632720000000     0.0303595  
C453     C      0.615180000000     0.228680000000     0.632970000000     0.0301437  
C454     C      0.615220000000     0.282920000000     0.633100000000     0.0301961  
C455     C      0.647330000000     0.282850000000     0.632960000000     0.0302951  
C456     C      0.647300000000     0.228620000000     0.633070000000     0.0303048  
C457     C      0.897250000000     0.035160000000     0.634020000000     0.0298381  
C458     C      0.897170000000     0.481000000000     0.631160000000     0.0303733  
C459     C      0.865140000000     0.481000000000     0.631120000000     0.0303599  
C460     C      0.865050000000     0.035160000000     0.633990000000     0.029655   
C461     C      0.615140000000     0.032160000000     0.631630000000     0.0293642  
C462     C      0.615060000000     0.477990000000     0.634310000000     0.0302539  
C463     C      0.647250000000     0.477990000000     0.634300000000     0.0302469  
C464     C      0.647170000000     0.032160000000     0.631610000000     0.029348   
C465     C      0.756100000000     0.282890000000     0.491300000000     0.0305276  
C466     C      0.756000000000     0.228660000000     0.491290000000     0.0306752  
C467     C      0.755950000000     0.228650000000     0.523490000000     0.030489   
C468     C      0.756190000000     0.282890000000     0.523490000000     0.0305687  
C469     C      0.755010000000     0.479550000000     0.491290000000     0.0305242  
C470     C      0.756700000000     0.033760000000     0.491290000000     0.0297929  
C471     C      0.756720000000     0.033760000000     0.523490000000     0.0298199  
C472     C      0.755050000000     0.479550000000     0.523490000000     0.030539   
C473     C      0.005490000000     0.228670000000     0.491390000000     0.0301043  
C474     C      0.507170000000     0.282880000000     0.491390000000     0.0303999  
C475     C      0.507200000000     0.282870000000     0.523590000000     0.0305876  
C476     C      0.005520000000     0.228670000000     0.523590000000     0.0301347  
C477     C      0.897160000000     0.281400000000     0.383670000000     0.0304437  
C478     C      0.897240000000     0.227250000000     0.380840000000     0.0306387  
C479     C      0.865040000000     0.227250000000     0.380810000000     0.0305481  
C480     C      0.865120000000     0.281400000000     0.383640000000     0.030374   
C481     C      0.615120000000     0.230240000000     0.383350000000     0.0300722  
C482     C      0.615040000000     0.284410000000     0.380620000000     0.0302027  
C483     C      0.647230000000     0.284410000000     0.380610000000     0.0303688  
C484     C      0.647160000000     0.230250000000     0.383330000000     0.0301803  
C485     C      0.006300000000     0.033770000000     0.491390000000     0.0293205  
C486     C      0.506060000000     0.479540000000     0.491390000000     0.0305244  
C487     C      0.506190000000     0.479540000000     0.523590000000     0.0305439  
C488     C      0.006280000000     0.033770000000     0.523590000000     0.0293173  
C489     C      0.864930000000     0.033690000000     0.382040000000     0.0297387  
C490     C      0.864890000000     0.479460000000     0.382250000000     0.0304244  
C491     C      0.897000000000     0.479390000000     0.382160000000     0.0305415  
C492     C      0.897040000000     0.033620000000     0.382170000000     0.0297693  
C493     C      0.614920000000     0.033760000000     0.381810000000     0.0293416  
C494     C      0.614890000000     0.479520000000     0.381950000000     0.0302352  
C495     C      0.647010000000     0.479460000000     0.381810000000     0.0302694  
C496     C      0.647040000000     0.033690000000     0.381900000000     0.02954    
C497     C      0.736800000000     0.274570000000     0.773490000000     0.0322071  
C498     C      0.776380000000     0.237310000000     0.773440000000     0.0320615  
C499     C      0.775140000000     0.236110000000     0.741280000000     0.0322299  
C500     C      0.737880000000     0.275690000000     0.741320000000     0.0320635  
C501     C      0.776560000000     0.487900000000     0.773370000000     0.0321469  
C502     C      0.736620000000     0.024760000000     0.773560000000     0.0316074  
C503     C      0.737680000000     0.026010000000     0.741390000000     0.031223   
C504     C      0.775340000000     0.486820000000     0.741200000000     0.0322168  
C505     C      0.729610000000     0.397090000000     0.881780000000     0.030277   
C506     C      0.783850000000     0.397120000000     0.881890000000     0.0302333  
C507     C      0.783910000000     0.365010000000     0.881790000000     0.0301819  
C508     C      0.729670000000     0.364980000000     0.881900000000     0.0302153  
C509     C      0.783840000000     0.115010000000     0.881970000000     0.0303417  
C510     C      0.729610000000     0.114970000000     0.882170000000     0.0302409  
C511     C      0.729540000000     0.147090000000     0.882040000000     0.0301486  
C512     C      0.783780000000     0.147120000000     0.882070000000     0.0302157  
C513     C      0.986300000000     0.274740000000     0.773510000000     0.035679   
C514     C      0.525480000000     0.237080000000     0.773650000000     0.0321664  
C515     C      0.524410000000     0.235900000000     0.741490000000     0.0320574  
C516     C      0.987550000000     0.275850000000     0.741340000000     0.0361942  
C517     C      0.986060000000     0.487720000000     0.773500000000     0.035614   
C518     C      0.525620000000     0.024990000000     0.773660000000     0.0314588  
C519     C      0.524530000000     0.026200000000     0.741490000000     0.0312633  
C520     C      0.987260000000     0.486640000000     0.741340000000     0.0361464  
C521     C      0.980130000000     0.397120000000     0.883390000000     0.0336887  
C522     C      0.534290000000     0.397200000000     0.880700000000     0.0303206  
C523     C      0.534290000000     0.365000000000     0.880690000000     0.0303398  
C524     C      0.980120000000     0.365080000000     0.883390000000     0.0335059  
C525     C      0.477120000000     0.115010000000     0.880870000000     0.0301567  
C526     C      0.031280000000     0.115080000000     0.883720000000     0.0294077  
C527     C      0.031280000000     0.147120000000     0.883720000000     0.0294146  
C528     C      0.477130000000     0.147200000000     0.880860000000     0.0303857  
C529     C      0.736630000000     0.237320000000     0.241240000000     0.0321238  
C530     C      0.776190000000     0.274600000000     0.241370000000     0.0320582  
C531     C      0.774980000000     0.275700000000     0.273530000000     0.0322589  
C532     C      0.737710000000     0.236140000000     0.273400000000     0.0321052  
C533     C      0.783840000000     0.256230000000     0.023490000000     0.0304977  
C534     C      0.729610000000     0.256130000000     0.023460000000     0.0305367  
C535     C      0.729630000000     0.256040000000     0.991260000000     0.0305277  
C536     C      0.783860000000     0.256280000000     0.991290000000     0.0305116  
C537     C      0.736750000000     0.025190000000     0.241210000000     0.0314712  
C538     C      0.775950000000     0.487530000000     0.241390000000     0.0321033  
C539     C      0.774690000000     0.486460000000     0.273560000000     0.0322308  
C540     C      0.737820000000     0.026400000000     0.273370000000     0.0312291  
C541     C      0.783840000000     0.006790000000     0.023500000000     0.0301139  
C542     C      0.729640000000     0.505110000000     0.023470000000     0.0304907  
C543     C      0.729660000000     0.505090000000     0.991270000000     0.0304924  
C544     C      0.783860000000     0.006780000000     0.991300000000     0.0301298  
C545     C      0.728000000000     0.365020000000     0.134150000000     0.0302695  
C546     C      0.782170000000     0.365100000000     0.131490000000     0.0301575  
C547     C      0.782170000000     0.397140000000     0.131500000000     0.0301696  
C548     C      0.728000000000     0.397210000000     0.134170000000     0.0302602  
C549     C      0.785170000000     0.115020000000     0.134030000000     0.0302279  
C550     C      0.731010000000     0.115100000000     0.131150000000     0.0301239  
C551     C      0.731010000000     0.147140000000     0.131160000000     0.0301091  
C552     C      0.785170000000     0.147210000000     0.134040000000     0.0303291  
C553     C      0.985840000000     0.274390000000     0.241480000000     0.03556    
C554     C      0.525780000000     0.237520000000     0.241350000000     0.0321086  
C555     C      0.524710000000     0.236320000000     0.273510000000     0.0322046  
C556     C      0.987050000000     0.275510000000     0.273640000000     0.0362247  
C557     C      0.532710000000     0.257070000000     0.023590000000     0.0305327  
C558     C      0.978510000000     0.255380000000     0.023590000000     0.0340406  
C559     C      0.978510000000     0.255380000000     0.991390000000     0.033972   
C560     C      0.532720000000     0.257060000000     0.991400000000     0.0304689  
C561     C      0.525540000000     0.487700000000     0.241430000000     0.0320636  
C562     C      0.985960000000     0.024950000000     0.241400000000     0.0350266  
C563     C      0.987170000000     0.026190000000     0.273560000000     0.0352212  
C564     C      0.524420000000     0.486610000000     0.273590000000     0.032183   
C565     C      0.532740000000     0.506120000000     0.023610000000     0.0304736  
C566     C      0.478510000000     0.005880000000     0.023600000000     0.0301231  
C567     C      0.478520000000     0.005940000000     0.991400000000     0.0300942  
C568     C      0.532750000000     0.506030000000     0.991410000000     0.0305082  
C569     C      0.978480000000     0.397170000000     0.133090000000     0.033808   
C570     C      0.532710000000     0.397200000000     0.132980000000     0.030251   
C571     C      0.532780000000     0.365090000000     0.133090000000     0.0303008  
C572     C      0.978550000000     0.365050000000     0.132970000000     0.0336943  
C573     C      0.532780000000     0.147200000000     0.132720000000     0.0302378  
C574     C      0.978550000000     0.147170000000     0.132920000000     0.0338856  
C575     C      0.978610000000     0.115060000000     0.132810000000     0.0336648  
C576     C      0.532850000000     0.115080000000     0.132840000000     0.0301586  
C577     C      0.005700000000     0.506220000000     0.194150000000     0.400418   
C578     C      0.505630000000     0.006040000000     0.071340000000     0.403833   
C579     C      0.505730000000     0.567460000000     0.132780000000     0.404137   
C580     C      0.005590000000     0.944790000000     0.132940000000     0.397806   
C581     C      0.505620000000     0.756200000000     0.071330000000     0.404454   
C582     C      0.005740000000     0.756040000000     0.194140000000     0.400351   
C583     C      0.505640000000     0.694790000000     0.132780000000     0.404072   
C584     C      0.505690000000     0.817460000000     0.132930000000     0.404085   
C585     C      0.756460000000     0.006240000000     0.194020000000     0.405327   
C586     C      0.756690000000     0.006010000000     0.071220000000     0.403842   
C587     C      0.757730000000     0.567440000000     0.132610000000     0.403958   
C588     C      0.755440000000     0.944790000000     0.132800000000     0.403474   
C589     C      0.756680000000     0.756180000000     0.071210000000     0.404405   
C590     C      0.756500000000     0.756030000000     0.194020000000     0.405958   
C591     C      0.757740000000     0.694790000000     0.132630000000     0.403945   
C592     C      0.755440000000     0.817440000000     0.132770000000     0.404168   
C593     C      0.505650000000     0.006010000000     0.943670000000     0.403801   
C594     C      0.505780000000     0.006220000000     0.820860000000     0.405319   
C595     C      0.504550000000     0.567430000000     0.882270000000     0.4041     
C596     C      0.506860000000     0.944780000000     0.882080000000     0.403596   
C597     C      0.505640000000     0.756190000000     0.943660000000     0.404394   
C598     C      0.505800000000     0.756000000000     0.820850000000     0.406032   
C599     C      0.506860000000     0.817430000000     0.882080000000     0.403861   
C600     C      0.504560000000     0.694780000000     0.882250000000     0.40395    
C601     C      0.756770000000     0.005960000000     0.943550000000     0.403625   
C602     C      0.756660000000     0.006180000000     0.820730000000     0.405392   
C603     C      0.756700000000     0.944720000000     0.881930000000     0.403813   
C604     C      0.756750000000     0.567380000000     0.882120000000     0.404271   
C605     C      0.756750000000     0.756120000000     0.943540000000     0.404481   
C606     C      0.756670000000     0.755980000000     0.820730000000     0.406028   
C607     C      0.756800000000     0.817380000000     0.881950000000     0.404107   
C608     C      0.756650000000     0.694710000000     0.882080000000     0.403963   
C609     C      0.506080000000     0.506630000000     0.443650000000     0.40443    
C610     C      0.505860000000     0.506490000000     0.320840000000     0.406038   
C611     C      0.567300000000     0.506650000000     0.382020000000     0.403961   
C612     C      0.944630000000     0.506500000000     0.382220000000     0.403676   
C613     C      0.506010000000     0.755870000000     0.320850000000     0.406093   
C614     C      0.506250000000     0.755790000000     0.443650000000     0.404368   
C615     C      0.944810000000     0.754680000000     0.382260000000     0.403539   
C616     C      0.567460000000     0.756980000000     0.382050000000     0.40403    
C617     C      0.756100000000     0.006500000000     0.320740000000     0.400266   
C618     C      0.755870000000     0.006640000000     0.443550000000     0.398471   
C619     C      0.694630000000     0.006560000000     0.381930000000     0.39822    
C620     C      0.817300000000     0.006600000000     0.382140000000     0.398497   
C621     C      0.756240000000     0.755880000000     0.320750000000     0.406098   
C622     C      0.756060000000     0.755790000000     0.443560000000     0.40438    
C623     C      0.694810000000     0.756980000000     0.381990000000     0.403963   
C624     C      0.817470000000     0.754680000000     0.382160000000     0.403949   
C625     C      0.506020000000     0.006500000000     0.694130000000     0.400146   
C626     C      0.506250000000     0.006640000000     0.571320000000     0.398455   
C627     C      0.567480000000     0.005420000000     0.632930000000     0.398028   
C628     C      0.944830000000     0.007730000000     0.632690000000     0.397936   
C629     C      0.506120000000     0.755840000000     0.694140000000     0.40589    
C630     C      0.506350000000     0.755770000000     0.571330000000     0.404512   
C631     C      0.567590000000     0.755820000000     0.632950000000     0.403974   
C632     C      0.944920000000     0.755780000000     0.632730000000     0.40379    
C633     C      0.756350000000     0.006490000000     0.694030000000     0.40034    
C634     C      0.755990000000     0.006640000000     0.571220000000     0.398598   
C635     C      0.694830000000     0.005420000000     0.632880000000     0.398077   
C636     C      0.817480000000     0.007730000000     0.632560000000     0.398253   
C637     C      0.756390000000     0.755840000000     0.694040000000     0.40589    
C638     C      0.756140000000     0.755770000000     0.571230000000     0.40445    
C639     C      0.694920000000     0.755730000000     0.632870000000     0.403972   
C640     C      0.817590000000     0.755880000000     0.632640000000     0.404002   
C641     C      0.897330000000     0.782920000000     0.632630000000     0.0305553  
C642     C      0.897300000000     0.728690000000     0.632810000000     0.0306746  
C643     C      0.865180000000     0.728750000000     0.632670000000     0.0304141  
C644     C      0.865220000000     0.782990000000     0.632720000000     0.0303521  
C645     C      0.615180000000     0.728680000000     0.632970000000     0.0301335  
C646     C      0.615220000000     0.782920000000     0.633100000000     0.0302042  
C647     C      0.647330000000     0.782850000000     0.632960000000     0.0303023  
C648     C      0.647300000000     0.728620000000     0.633070000000     0.030294   
C649     C      0.897250000000     0.535160000000     0.634020000000     0.030663   
C650     C      0.897170000000     0.981000000000     0.631160000000     0.0338393  
C651     C      0.865140000000     0.981000000000     0.631120000000     0.0338517  
C652     C      0.865050000000     0.535160000000     0.633990000000     0.030459   
C653     C      0.615140000000     0.532160000000     0.631630000000     0.030113   
C654     C      0.615060000000     0.977990000000     0.634310000000     0.0337801  
C655     C      0.647250000000     0.977990000000     0.634310000000     0.0337779  
C656     C      0.647170000000     0.532160000000     0.631610000000     0.0300771  
C657     C      0.756100000000     0.782890000000     0.491300000000     0.0305263  
C658     C      0.756000000000     0.728660000000     0.491290000000     0.030663   
C659     C      0.755950000000     0.728650000000     0.523490000000     0.0304764  
C660     C      0.756190000000     0.782890000000     0.523490000000     0.0305673  
C661     C      0.755010000000     0.979560000000     0.491290000000     0.0341298  
C662     C      0.756700000000     0.533760000000     0.491290000000     0.0305736  
C663     C      0.756720000000     0.533760000000     0.523490000000     0.030597   
C664     C      0.755050000000     0.979550000000     0.523490000000     0.0339842  
C665     C      0.005490000000     0.728670000000     0.491390000000     0.0300976  
C666     C      0.507170000000     0.782870000000     0.491390000000     0.0305102  
C667     C      0.507200000000     0.782870000000     0.523590000000     0.0305263  
C668     C      0.005520000000     0.728670000000     0.523590000000     0.0301132  
C669     C      0.897160000000     0.781400000000     0.383670000000     0.0304626  
C670     C      0.897240000000     0.727250000000     0.380840000000     0.0306281  
C671     C      0.865040000000     0.727250000000     0.380810000000     0.0305373  
C672     C      0.865120000000     0.781400000000     0.383640000000     0.0303927  
C673     C      0.615120000000     0.730240000000     0.383350000000     0.0300719  
C674     C      0.615040000000     0.784410000000     0.380620000000     0.0302213  
C675     C      0.647230000000     0.784410000000     0.380610000000     0.0303689  
C676     C      0.647160000000     0.730250000000     0.383330000000     0.0301667  
C677     C      0.006300000000     0.533770000000     0.491390000000     0.0300855  
C678     C      0.506060000000     0.979540000000     0.491390000000     0.0340275  
C679     C      0.506190000000     0.979540000000     0.523590000000     0.0340633  
C680     C      0.006280000000     0.533770000000     0.523590000000     0.0301031  
C681     C      0.864930000000     0.533690000000     0.382040000000     0.0305212  
C682     C      0.864890000000     0.979460000000     0.382250000000     0.0339064  
C683     C      0.897010000000     0.979390000000     0.382160000000     0.034093   
C684     C      0.897040000000     0.533620000000     0.382170000000     0.0305277  
C685     C      0.614920000000     0.533760000000     0.381810000000     0.030175   
C686     C      0.614890000000     0.979520000000     0.381950000000     0.0337184  
C687     C      0.647010000000     0.979460000000     0.381810000000     0.0338142  
C688     C      0.647040000000     0.533700000000     0.381900000000     0.0302036  
C689     C      0.736800000000     0.774570000000     0.773490000000     0.0322223  
C690     C      0.776380000000     0.737310000000     0.773440000000     0.0320656  
C691     C      0.775140000000     0.736110000000     0.741280000000     0.0322287  
C692     C      0.737880000000     0.775690000000     0.741320000000     0.0320817  
C693     C      0.776560000000     0.987900000000     0.773370000000     0.0362598  
C694     C      0.736620000000     0.524770000000     0.773560000000     0.032188   
C695     C      0.737680000000     0.526010000000     0.741390000000     0.032133   
C696     C      0.775340000000     0.986820000000     0.741200000000     0.035628   
C697     C      0.729610000000     0.897090000000     0.881780000000     0.0305678  
C698     C      0.783850000000     0.897120000000     0.881890000000     0.0305053  
C699     C      0.783910000000     0.865010000000     0.881790000000     0.0303812  
C700     C      0.729670000000     0.864980000000     0.881900000000     0.0304247  
C701     C      0.783840000000     0.615010000000     0.881970000000     0.0303571  
C702     C      0.729610000000     0.614970000000     0.882170000000     0.0302456  
C703     C      0.729540000000     0.647090000000     0.882040000000     0.0301403  
C704     C      0.783780000000     0.647120000000     0.882070000000     0.0302143  
C705     C      0.986300000000     0.774740000000     0.773510000000     0.0356943  
C706     C      0.525480000000     0.737080000000     0.773650000000     0.0321748  
C707     C      0.524410000000     0.735900000000     0.741490000000     0.0320609  
C708     C      0.987550000000     0.775850000000     0.741340000000     0.0362133  
C709     C      0.986060000000     0.987720000000     0.773500000000     0.0396605  
C710     C      0.525620000000     0.524990000000     0.773660000000     0.0320559  
C711     C      0.524530000000     0.526200000000     0.741490000000     0.0321728  
C712     C      0.987260000000     0.986640000000     0.741340000000     0.0395408  
C713     C      0.980130000000     0.897120000000     0.883390000000     0.0339527  
C714     C      0.534290000000     0.897200000000     0.880700000000     0.0306136  
C715     C      0.534290000000     0.865000000000     0.880690000000     0.0305513  
C716     C      0.980120000000     0.865080000000     0.883390000000     0.0337007  
C717     C      0.477120000000     0.615010000000     0.880870000000     0.030178   
C718     C      0.031280000000     0.615080000000     0.883720000000     0.0294164  
C719     C      0.031280000000     0.647120000000     0.883720000000     0.0293901  
C720     C      0.477130000000     0.647200000000     0.880860000000     0.0303697  
C721     C      0.736630000000     0.737320000000     0.241240000000     0.03213    
C722     C      0.776190000000     0.774600000000     0.241370000000     0.0320741  
C723     C      0.774980000000     0.775700000000     0.273530000000     0.032279   
C724     C      0.737710000000     0.736140000000     0.273400000000     0.0321065  
C725     C      0.783840000000     0.756230000000     0.023490000000     0.0305459  
C726     C      0.729610000000     0.756130000000     0.023460000000     0.0305856  
C727     C      0.729630000000     0.756040000000     0.991260000000     0.0305757  
C728     C      0.783860000000     0.756280000000     0.991290000000     0.0305602  
C729     C      0.736750000000     0.525190000000     0.241210000000     0.0320555  
C730     C      0.775950000000     0.987530000000     0.241390000000     0.0361763  
C731     C      0.774690000000     0.986460000000     0.273560000000     0.0356608  
C732     C      0.737820000000     0.526390000000     0.273370000000     0.0322067  
C733     C      0.783840000000     0.506790000000     0.023500000000     0.030511   
C734     C      0.729640000000     0.005110000000     0.023470000000     0.0300874  
C735     C      0.729660000000     0.005090000000     0.991270000000     0.0300898  
C736     C      0.783860000000     0.506780000000     0.991300000000     0.030526   
C737     C      0.728000000000     0.865020000000     0.134150000000     0.0304766  
C738     C      0.782170000000     0.865100000000     0.131490000000     0.0303608  
C739     C      0.782170000000     0.897140000000     0.131500000000     0.0304445  
C740     C      0.728000000000     0.897210000000     0.134170000000     0.0305483  
C741     C      0.785170000000     0.615010000000     0.134030000000     0.0302765  
C742     C      0.731010000000     0.615100000000     0.131150000000     0.03014    
C743     C      0.731010000000     0.647130000000     0.131160000000     0.0300588  
C744     C      0.785170000000     0.647210000000     0.134040000000     0.0303097  
C745     C      0.985840000000     0.774390000000     0.241480000000     0.0355718  
C746     C      0.525780000000     0.737520000000     0.241350000000     0.032119   
C747     C      0.524710000000     0.736320000000     0.273510000000     0.0321982  
C748     C      0.987050000000     0.775510000000     0.273640000000     0.0362396  
C749     C      0.532710000000     0.757070000000     0.023590000000     0.0305829  
C750     C      0.978510000000     0.755380000000     0.023590000000     0.0340854  
C751     C      0.978510000000     0.755380000000     0.991390000000     0.0340163  
C752     C      0.532720000000     0.757060000000     0.991400000000     0.0305181  
C753     C      0.525540000000     0.987690000000     0.241430000000     0.0360945  
C754     C      0.985960000000     0.524950000000     0.241400000000     0.0356522  
C755     C      0.987170000000     0.526190000000     0.273560000000     0.0361179  
C756     C      0.524430000000     0.986610000000     0.273590000000     0.0355896  
C757     C      0.532740000000     0.006120000000     0.023610000000     0.0300757  
C758     C      0.478510000000     0.505880000000     0.023600000000     0.0305239  
C759     C      0.478520000000     0.505940000000     0.991400000000     0.0304947  
C760     C      0.532750000000     0.006030000000     0.991410000000     0.0301085  
C761     C      0.978480000000     0.897170000000     0.133090000000     0.0340848  
C762     C      0.532710000000     0.897200000000     0.132980000000     0.0305262  
C763     C      0.532780000000     0.865090000000     0.133090000000     0.0305048  
C764     C      0.978550000000     0.865050000000     0.132970000000     0.033895   
C765     C      0.532780000000     0.647200000000     0.132720000000     0.0302238  
C766     C      0.978550000000     0.647170000000     0.132920000000     0.033877   
C767     C      0.978610000000     0.615060000000     0.132810000000     0.0336749  
C768     C      0.532850000000     0.615080000000     0.132840000000     0.0301738  
Cu1      Cu     0.034030000000     0.005790000000     0.132830000000     0.839023   
Cu2      Cu     0.477290000000     0.506470000000     0.132850000000     0.847885   
Cu3      Cu     0.034040000000     0.255820000000     0.132800000000     0.843141   
Cu4      Cu     0.477300000000     0.256430000000     0.132850000000     0.847898   
Cu5      Cu     0.284940000000     0.505430000000     0.132770000000     0.847719   
Cu6      Cu     0.228220000000     0.506800000000     0.132660000000     0.848143   
Cu7      Cu     0.284950000000     0.256810000000     0.132750000000     0.847951   
Cu8      Cu     0.228230000000     0.255410000000     0.132660000000     0.847968   
Cu9      Cu     0.034070000000     0.506800000000     0.882200000000     0.842925   
Cu10     Cu     0.477350000000     0.505400000000     0.882150000000     0.84782    
Cu11     Cu     0.034070000000     0.255410000000     0.882200000000     0.843023   
Cu12     Cu     0.477350000000     0.256790000000     0.882120000000     0.847757   
Cu13     Cu     0.228350000000     0.506360000000     0.882070000000     0.848496   
Cu14     Cu     0.285100000000     0.505740000000     0.882030000000     0.847932   
Cu15     Cu     0.285090000000     0.255710000000     0.882020000000     0.847882   
Cu16     Cu     0.228350000000     0.256390000000     0.882060000000     0.848448   
Cu17     Cu     0.006310000000     0.478190000000     0.382190000000     0.844518   
Cu18     Cu     0.005620000000     0.034940000000     0.382120000000     0.838537   
Cu19     Cu     0.006830000000     0.227470000000     0.382140000000     0.843844   
Cu20     Cu     0.005450000000     0.284190000000     0.382180000000     0.843896   
Cu21     Cu     0.256280000000     0.478200000000     0.382080000000     0.848423   
Cu22     Cu     0.255660000000     0.034950000000     0.382020000000     0.842662   
Cu23     Cu     0.255440000000     0.227470000000     0.382040000000     0.847798   
Cu24     Cu     0.256840000000     0.284190000000     0.382080000000     0.847963   
Cu25     Cu     0.005450000000     0.478210000000     0.632790000000     0.843994   
Cu26     Cu     0.006850000000     0.034930000000     0.632850000000     0.838572   
Cu27     Cu     0.006560000000     0.227430000000     0.632840000000     0.844059   
Cu28     Cu     0.005940000000     0.284180000000     0.632810000000     0.844198   
Cu29     Cu     0.255470000000     0.034930000000     0.632750000000     0.842474   
Cu30     Cu     0.256850000000     0.478210000000     0.632680000000     0.848057   
Cu31     Cu     0.255920000000     0.284180000000     0.632710000000     0.848307   
Cu32     Cu     0.256600000000     0.227430000000     0.632740000000     0.847955   
Cu33     Cu     0.034030000000     0.505790000000     0.132830000000     0.843094   
Cu34     Cu     0.477290000000     0.006470000000     0.132850000000     0.843905   
Cu35     Cu     0.034040000000     0.755820000000     0.132800000000     0.843302   
Cu36     Cu     0.477300000000     0.756430000000     0.132850000000     0.847901   
Cu37     Cu     0.284940000000     0.005430000000     0.132770000000     0.843656   
Cu38     Cu     0.228220000000     0.006800000000     0.132660000000     0.844144   
Cu39     Cu     0.284950000000     0.756810000000     0.132750000000     0.847981   
Cu40     Cu     0.228230000000     0.755410000000     0.132660000000     0.847997   
Cu41     Cu     0.034070000000     0.006800000000     0.882200000000     0.839023   
Cu42     Cu     0.477350000000     0.005400000000     0.882150000000     0.843665   
Cu43     Cu     0.034070000000     0.755410000000     0.882200000000     0.843055   
Cu44     Cu     0.477350000000     0.756790000000     0.882120000000     0.847786   
Cu45     Cu     0.228350000000     0.006360000000     0.882070000000     0.844563   
Cu46     Cu     0.285100000000     0.005740000000     0.882030000000     0.843801   
Cu47     Cu     0.285090000000     0.755710000000     0.882020000000     0.847907   
Cu48     Cu     0.228350000000     0.756390000000     0.882060000000     0.848473   
Cu49     Cu     0.006310000000     0.978190000000     0.382190000000     0.847523   
Cu50     Cu     0.005620000000     0.534940000000     0.382120000000     0.843674   
Cu51     Cu     0.006830000000     0.727470000000     0.382140000000     0.843804   
Cu52     Cu     0.005450000000     0.784190000000     0.382180000000     0.84398    
Cu53     Cu     0.256280000000     0.978200000000     0.382080000000     0.851353   
Cu54     Cu     0.255660000000     0.534950000000     0.382020000000     0.84785    
Cu55     Cu     0.255440000000     0.727470000000     0.382040000000     0.847736   
Cu56     Cu     0.256840000000     0.784190000000     0.382080000000     0.848012   
Cu57     Cu     0.005450000000     0.978220000000     0.632790000000     0.846869   
Cu58     Cu     0.006850000000     0.534930000000     0.632850000000     0.843893   
Cu59     Cu     0.006560000000     0.727430000000     0.632840000000     0.843993   
Cu60     Cu     0.005940000000     0.784180000000     0.632810000000     0.844255   
Cu61     Cu     0.255470000000     0.534930000000     0.632750000000     0.847765   
Cu62     Cu     0.256850000000     0.978220000000     0.632680000000     0.851025   
Cu63     Cu     0.255920000000     0.784180000000     0.632710000000     0.84837    
Cu64     Cu     0.256600000000     0.727430000000     0.632740000000     0.847883   
Cu65     Cu     0.534030000000     0.005790000000     0.132830000000     0.844072   
Cu66     Cu     0.977280000000     0.506470000000     0.132850000000     0.850912   
Cu67     Cu     0.534040000000     0.255820000000     0.132800000000     0.848326   
Cu68     Cu     0.977300000000     0.256430000000     0.132850000000     0.850875   
Cu69     Cu     0.784940000000     0.505430000000     0.132770000000     0.847621   
Cu70     Cu     0.728230000000     0.506800000000     0.132660000000     0.848002   
Cu71     Cu     0.784950000000     0.256810000000     0.132750000000     0.848005   
Cu72     Cu     0.728230000000     0.255410000000     0.132660000000     0.84785    
Cu73     Cu     0.534070000000     0.506800000000     0.882200000000     0.848111   
Cu74     Cu     0.977350000000     0.505400000000     0.882150000000     0.850797   
Cu75     Cu     0.534070000000     0.255410000000     0.882200000000     0.848181   
Cu76     Cu     0.977350000000     0.256790000000     0.882120000000     0.850765   
Cu77     Cu     0.728350000000     0.506360000000     0.882070000000     0.848448   
Cu78     Cu     0.785100000000     0.505740000000     0.882030000000     0.848022   
Cu79     Cu     0.785090000000     0.255710000000     0.882020000000     0.84808    
Cu80     Cu     0.728340000000     0.256390000000     0.882060000000     0.848409   
Cu81     Cu     0.506310000000     0.478190000000     0.382190000000     0.848379   
Cu82     Cu     0.505620000000     0.034940000000     0.382120000000     0.842626   
Cu83     Cu     0.506820000000     0.227470000000     0.382140000000     0.847952   
Cu84     Cu     0.505450000000     0.284190000000     0.382180000000     0.84784    
Cu85     Cu     0.756270000000     0.478200000000     0.382080000000     0.848307   
Cu86     Cu     0.755660000000     0.034950000000     0.382020000000     0.842712   
Cu87     Cu     0.755440000000     0.227470000000     0.382040000000     0.847821   
Cu88     Cu     0.756840000000     0.284190000000     0.382080000000     0.847991   
Cu89     Cu     0.505450000000     0.478210000000     0.632790000000     0.848162   
Cu90     Cu     0.506850000000     0.034930000000     0.632850000000     0.84235    
Cu91     Cu     0.506560000000     0.227430000000     0.632840000000     0.848122   
Cu92     Cu     0.505940000000     0.284180000000     0.632810000000     0.848315   
Cu93     Cu     0.755470000000     0.034930000000     0.632750000000     0.842487   
Cu94     Cu     0.756840000000     0.478220000000     0.632680000000     0.848026   
Cu95     Cu     0.755920000000     0.284180000000     0.632710000000     0.848337   
Cu96     Cu     0.756600000000     0.227430000000     0.632740000000     0.847968   
Cu97     Cu     0.534030000000     0.505790000000     0.132830000000     0.848157   
Cu98     Cu     0.977280000000     0.006470000000     0.132850000000     0.846937   
Cu99     Cu     0.534040000000     0.755820000000     0.132800000000     0.848484   
Cu100    Cu     0.977300000000     0.756430000000     0.132850000000     0.850874   
Cu101    Cu     0.784940000000     0.005430000000     0.132770000000     0.843534   
Cu102    Cu     0.728230000000     0.006800000000     0.132660000000     0.84403    
Cu103    Cu     0.784950000000     0.756810000000     0.132750000000     0.848035   
Cu104    Cu     0.728230000000     0.755410000000     0.132660000000     0.847879   
Cu105    Cu     0.534070000000     0.006800000000     0.882200000000     0.844189   
Cu106    Cu     0.977350000000     0.005400000000     0.882150000000     0.846649   
Cu107    Cu     0.534070000000     0.755410000000     0.882200000000     0.84821    
Cu108    Cu     0.977350000000     0.756790000000     0.882120000000     0.85079    
Cu109    Cu     0.728350000000     0.006360000000     0.882070000000     0.844518   
Cu110    Cu     0.785100000000     0.005740000000     0.882030000000     0.843894   
Cu111    Cu     0.785090000000     0.755710000000     0.882020000000     0.848104   
Cu112    Cu     0.728340000000     0.756390000000     0.882060000000     0.848434   
Cu113    Cu     0.506310000000     0.978190000000     0.382190000000     0.851379   
Cu114    Cu     0.505620000000     0.534940000000     0.382120000000     0.847782   
Cu115    Cu     0.506820000000     0.727470000000     0.382140000000     0.847913   
Cu116    Cu     0.505450000000     0.784190000000     0.382180000000     0.847922   
Cu117    Cu     0.756280000000     0.978200000000     0.382080000000     0.85124    
Cu118    Cu     0.755660000000     0.534950000000     0.382020000000     0.847896   
Cu119    Cu     0.755440000000     0.727470000000     0.382040000000     0.847759   
Cu120    Cu     0.756840000000     0.784190000000     0.382080000000     0.848039   
Cu121    Cu     0.505450000000     0.978220000000     0.632790000000     0.851027   
Cu122    Cu     0.506850000000     0.534930000000     0.632850000000     0.847697   
Cu123    Cu     0.506560000000     0.727430000000     0.632840000000     0.848028   
Cu124    Cu     0.505940000000     0.784180000000     0.632810000000     0.848347   
Cu125    Cu     0.755470000000     0.534930000000     0.632750000000     0.847654   
Cu126    Cu     0.756840000000     0.978220000000     0.632680000000     0.85104    
Cu127    Cu     0.755920000000     0.784180000000     0.632710000000     0.848364   
Cu128    Cu     0.756600000000     0.727430000000     0.632740000000     0.847876   
H1       H      0.408980000000     0.304970000000     0.632610000000     0.0385528  
H2       H      0.408920000000     0.206630000000     0.632860000000     0.0385726  
H3       H      0.353530000000     0.206710000000     0.632690000000     0.0388154  
H4       H      0.353580000000     0.305040000000     0.632690000000     0.038413   
H5       H      0.103530000000     0.206640000000     0.632970000000     0.038501   
H6       H      0.103590000000     0.304970000000     0.633120000000     0.0385531  
H7       H      0.158980000000     0.304900000000     0.632950000000     0.0387831  
H8       H      0.158930000000     0.206560000000     0.633060000000     0.0383264  
H9       H      0.408970000000     0.057130000000     0.635200000000     0.0386107  
H10      H      0.408720000000     0.458930000000     0.630010000000     0.0386734  
H11      H      0.353590000000     0.458930000000     0.629940000000     0.038703   
H12      H      0.353330000000     0.057130000000     0.635140000000     0.0386259  
H13      H      0.103590000000     0.054230000000     0.630540000000     0.0386489  
H14      H      0.103340000000     0.456020000000     0.635410000000     0.0385195  
H15      H      0.158980000000     0.456020000000     0.635390000000     0.0385719  
H16      H      0.158720000000     0.054230000000     0.630520000000     0.0387369  
H17      H      0.256150000000     0.304940000000     0.479630000000     0.0386571  
H18      H      0.255940000000     0.206610000000     0.479620000000     0.0385739  
H19      H      0.255890000000     0.206600000000     0.535160000000     0.038627   
H20      H      0.256270000000     0.304940000000     0.535160000000     0.0386445  
H21      H      0.254310000000     0.457510000000     0.479620000000     0.0386664  
H22      H      0.257370000000     0.055800000000     0.479610000000     0.0386588  
H23      H      0.257420000000     0.055800000000     0.535160000000     0.0386405  
H24      H      0.254380000000     0.457510000000     0.535150000000     0.0386511  
H25      H      0.504800000000     0.206630000000     0.479710000000     0.0386025  
H26      H      0.007840000000     0.304920000000     0.479730000000     0.0382022  
H27      H      0.007900000000     0.304910000000     0.535260000000     0.0381582  
H28      H      0.504840000000     0.206620000000     0.535260000000     0.0385877  
H29      H      0.408710000000     0.303470000000     0.384830000000     0.0387022  
H30      H      0.408960000000     0.205270000000     0.379690000000     0.0385457  
H31      H      0.353320000000     0.205270000000     0.379650000000     0.038595   
H32      H      0.353570000000     0.303470000000     0.384780000000     0.0386764  
H33      H      0.103570000000     0.208170000000     0.384460000000     0.0386209  
H34      H      0.103320000000     0.306380000000     0.379530000000     0.0385167  
H35      H      0.158960000000     0.306390000000     0.379500000000     0.038593   
H36      H      0.158710000000     0.208170000000     0.384430000000     0.038612   
H37      H      0.506360000000     0.055820000000     0.479710000000     0.0386357  
H38      H      0.005970000000     0.457480000000     0.479730000000     0.0381403  
H39      H      0.006140000000     0.457480000000     0.535250000000     0.0381202  
H40      H      0.506360000000     0.055820000000     0.535260000000     0.0386218  
H41      H      0.353300000000     0.055750000000     0.381980000000     0.038649   
H42      H      0.353240000000     0.457410000000     0.382290000000     0.0385661  
H43      H      0.408640000000     0.457330000000     0.382200000000     0.0383676  
H44      H      0.408690000000     0.055670000000     0.382150000000     0.0388495  
H45      H      0.103290000000     0.055810000000     0.381800000000     0.0383244  
H46      H      0.103250000000     0.457480000000     0.381970000000     0.0387363  
H47      H      0.158640000000     0.457400000000     0.381800000000     0.0386108  
H48      H      0.158690000000     0.055740000000     0.381890000000     0.0385411  
H49      H      0.221090000000     0.289800000000     0.785510000000     0.0360121  
H50      H      0.292140000000     0.222110000000     0.785430000000     0.0360398  
H51      H      0.290330000000     0.220360000000     0.729260000000     0.0359967  
H52      H      0.222630000000     0.291400000000     0.729330000000     0.0360362  
H53      H      0.292470000000     0.472800000000     0.785290000000     0.0359047  
H54      H      0.220770000000     0.039800000000     0.785630000000     0.0357329  
H55      H      0.222260000000     0.041610000000     0.729470000000     0.0358433  
H56      H      0.290690000000     0.471270000000     0.729130000000     0.0359154  
H57      H      0.207550000000     0.408720000000     0.881760000000     0.0385866  
H58      H      0.305890000000     0.408780000000     0.881900000000     0.0385715  
H59      H      0.305960000000     0.353370000000     0.881780000000     0.0384223  
H60      H      0.207630000000     0.353330000000     0.881900000000     0.0388226  
H61      H      0.305900000000     0.103380000000     0.881930000000     0.0385226  
H62      H      0.207560000000     0.103320000000     0.882210000000     0.0384626  
H63      H      0.207490000000     0.158720000000     0.882060000000     0.0383659  
H64      H      0.305820000000     0.158770000000     0.882040000000     0.0388137  
H65      H      0.470690000000     0.290140000000     0.785450000000     0.0359064  
H66      H      0.041030000000     0.221710000000     0.785710000000     0.035833   
H67      H      0.039510000000     0.220010000000     0.729540000000     0.0357639  
H68      H      0.472510000000     0.291720000000     0.729280000000     0.0359217  
H69      H      0.470310000000     0.472460000000     0.785430000000     0.035873   
H70      H      0.041320000000     0.040190000000     0.785720000000     0.0356995  
H71      H      0.039790000000     0.041960000000     0.729560000000     0.0356611  
H72      H      0.472060000000     0.470940000000     0.729280000000     0.0359196  
H73      H      0.458050000000     0.408670000000     0.884490000000     0.0386676  
H74      H      0.056270000000     0.408920000000     0.879600000000     0.0386045  
H75      H      0.056270000000     0.353280000000     0.879590000000     0.0385722  
H76      H      0.458050000000     0.353530000000     0.884490000000     0.0387023  
H77      H      0.955150000000     0.103280000000     0.879710000000     0.0383324  
H78      H      0.553350000000     0.103530000000     0.884890000000     0.0385716  
H79      H      0.553350000000     0.158670000000     0.884880000000     0.0386624  
H80      H      0.955150000000     0.158920000000     0.879700000000     0.0383529  
H81      H      0.220930000000     0.222110000000     0.229190000000     0.0358902  
H82      H      0.291940000000     0.289840000000     0.229420000000     0.035948   
H83      H      0.290190000000     0.291420000000     0.285570000000     0.0358947  
H84      H      0.222460000000     0.220400000000     0.285350000000     0.0358891  
H85      H      0.305880000000     0.256290000000     0.035180000000     0.0386384  
H86      H      0.207550000000     0.256080000000     0.035110000000     0.0385909  
H87      H      0.207580000000     0.255960000000     0.979580000000     0.0386452  
H88      H      0.305910000000     0.256340000000     0.979630000000     0.0386407  
H89      H      0.221210000000     0.040540000000     0.229130000000     0.0357598  
H90      H      0.291550000000     0.472130000000     0.229470000000     0.0359374  
H91      H      0.289720000000     0.470600000000     0.285630000000     0.0359097  
H92      H      0.222720000000     0.042300000000     0.285290000000     0.0357833  
H93      H      0.305880000000     0.007480000000     0.035190000000     0.0381647  
H94      H      0.207590000000     0.504440000000     0.035120000000     0.0386093  
H95      H      0.207620000000     0.504400000000     0.979590000000     0.038604   
H96      H      0.305910000000     0.007460000000     0.979640000000     0.0381524  
H97      H      0.206030000000     0.353290000000     0.135230000000     0.0385884  
H98      H      0.304250000000     0.353550000000     0.130400000000     0.0386805  
H99      H      0.304240000000     0.408690000000     0.130410000000     0.038717   
H100     H      0.206030000000     0.408930000000     0.135260000000     0.0385751  
H101     H      0.307140000000     0.103290000000     0.135210000000     0.0385079  
H102     H      0.208940000000     0.103550000000     0.129970000000     0.0386171  
H103     H      0.208940000000     0.158690000000     0.129980000000     0.038622   
H104     H      0.307140000000     0.158930000000     0.135210000000     0.038605   
H105     H      0.469940000000     0.289470000000     0.229530000000     0.0359074  
H106     H      0.041640000000     0.222470000000     0.229290000000     0.0358116  
H107     H      0.040130000000     0.220730000000     0.285460000000     0.0357355  
H108     H      0.471700000000     0.291070000000     0.285700000000     0.0359598  
H109     H      0.054750000000     0.257750000000     0.035260000000     0.0386561  
H110     H      0.456460000000     0.254690000000     0.035260000000     0.0386484  
H111     H      0.456470000000     0.254700000000     0.979710000000     0.0386348  
H112     H      0.054760000000     0.257740000000     0.979740000000     0.0386726  
H113     H      0.041260000000     0.472450000000     0.229440000000     0.0359317  
H114     H      0.470210000000     0.040140000000     0.229380000000     0.0358518  
H115     H      0.471960000000     0.041940000000     0.285560000000     0.0359296  
H116     H      0.039660000000     0.470900000000     0.285610000000     0.035862   
H117     H      0.054790000000     0.506200000000     0.035280000000     0.0386159  
H118     H      0.956460000000     0.005810000000     0.035270000000     0.0379323  
H119     H      0.956470000000     0.005880000000     0.979720000000     0.0378994  
H120     H      0.054800000000     0.506090000000     0.979750000000     0.0386376  
H121     H      0.456420000000     0.408800000000     0.133100000000     0.0383693  
H122     H      0.054760000000     0.408850000000     0.132980000000     0.0388451  
H123     H      0.054840000000     0.353460000000     0.133100000000     0.0386487  
H124     H      0.456500000000     0.353390000000     0.132960000000     0.0385815  
H125     H      0.054830000000     0.158850000000     0.132680000000     0.0385556  
H126     H      0.456490000000     0.158800000000     0.132960000000     0.0385967  
H127     H      0.456560000000     0.103410000000     0.132840000000     0.0387627  
H128     H      0.054900000000     0.103450000000     0.132820000000     0.0383167  
H129     H      0.408980000000     0.804970000000     0.632610000000     0.0386076  
H130     H      0.408920000000     0.706630000000     0.632860000000     0.0385915  
H131     H      0.353530000000     0.706710000000     0.632690000000     0.0388288  
H132     H      0.353580000000     0.805040000000     0.632690000000     0.038458   
H133     H      0.103530000000     0.706640000000     0.632970000000     0.0384989  
H134     H      0.103590000000     0.804970000000     0.633120000000     0.0386225  
H135     H      0.158980000000     0.804900000000     0.632950000000     0.0388512  
H136     H      0.158930000000     0.706560000000     0.633060000000     0.0383248  
H137     H      0.408970000000     0.557130000000     0.635200000000     0.0385925  
H138     H      0.408720000000     0.958930000000     0.630010000000     0.0384279  
H139     H      0.353590000000     0.958930000000     0.629940000000     0.0384569  
H140     H      0.353330000000     0.557130000000     0.635140000000     0.0386087  
H141     H      0.103590000000     0.554230000000     0.630540000000     0.0385904  
H142     H      0.103340000000     0.956020000000     0.635410000000     0.0383455  
H143     H      0.158980000000     0.956020000000     0.635390000000     0.0383934  
H144     H      0.158720000000     0.554230000000     0.630520000000     0.0386897  
H145     H      0.256150000000     0.804940000000     0.479630000000     0.0387048  
H146     H      0.255940000000     0.706610000000     0.479620000000     0.0385768  
H147     H      0.255890000000     0.706600000000     0.535160000000     0.0386305  
H148     H      0.256270000000     0.804940000000     0.535160000000     0.0386927  
H149     H      0.254310000000     0.957510000000     0.479620000000     0.0384079  
H150     H      0.257370000000     0.555800000000     0.479610000000     0.0386171  
H151     H      0.257420000000     0.555800000000     0.535160000000     0.0386047  
H152     H      0.254380000000     0.957510000000     0.535150000000     0.0384366  
H153     H      0.504800000000     0.706630000000     0.479710000000     0.0386039  
H154     H      0.007840000000     0.804920000000     0.479730000000     0.0382177  
H155     H      0.007900000000     0.804910000000     0.535260000000     0.0382216  
H156     H      0.504840000000     0.706620000000     0.535260000000     0.0385932  
H157     H      0.408710000000     0.803480000000     0.384830000000     0.0387478  
H158     H      0.408960000000     0.705270000000     0.379690000000     0.0385496  
H159     H      0.353320000000     0.705270000000     0.379650000000     0.0386002  
H160     H      0.353570000000     0.803480000000     0.384780000000     0.0387202  
H161     H      0.103570000000     0.708170000000     0.384460000000     0.0386202  
H162     H      0.103320000000     0.806380000000     0.379530000000     0.0385665  
H163     H      0.158960000000     0.806390000000     0.379500000000     0.038656   
H164     H      0.158710000000     0.708170000000     0.384430000000     0.0386157  
H165     H      0.506350000000     0.555820000000     0.479710000000     0.038603   
H166     H      0.005970000000     0.957480000000     0.479730000000     0.0379095  
H167     H      0.006140000000     0.957480000000     0.535250000000     0.0378916  
H168     H      0.506360000000     0.555820000000     0.535260000000     0.0385837  
H169     H      0.353300000000     0.555750000000     0.381980000000     0.0386186  
H170     H      0.353240000000     0.957410000000     0.382290000000     0.0383329  
H171     H      0.408640000000     0.957330000000     0.382200000000     0.0381575  
H172     H      0.408690000000     0.555670000000     0.382150000000     0.0388109  
H173     H      0.103290000000     0.555810000000     0.381800000000     0.0382822  
H174     H      0.103250000000     0.957480000000     0.381970000000     0.0385054  
H175     H      0.158640000000     0.957400000000     0.381800000000     0.0383988  
H176     H      0.158690000000     0.555740000000     0.381890000000     0.038531   
H177     H      0.221090000000     0.789800000000     0.785510000000     0.0360927  
H178     H      0.292140000000     0.722110000000     0.785430000000     0.0360519  
H179     H      0.290330000000     0.720360000000     0.729260000000     0.0360079  
H180     H      0.222630000000     0.791400000000     0.729330000000     0.0361052  
H181     H      0.292470000000     0.972800000000     0.785290000000     0.0362705  
H182     H      0.220760000000     0.539800000000     0.785630000000     0.0358818  
H183     H      0.222260000000     0.541610000000     0.729470000000     0.0359109  
H184     H      0.290690000000     0.971270000000     0.729130000000     0.0360482  
H185     H      0.207550000000     0.908720000000     0.881760000000     0.0392166  
H186     H      0.305890000000     0.908780000000     0.881900000000     0.0391471  
H187     H      0.305960000000     0.853370000000     0.881780000000     0.0386109  
H188     H      0.207630000000     0.853330000000     0.881900000000     0.0390324  
H189     H      0.305900000000     0.603380000000     0.881930000000     0.0386154  
H190     H      0.207560000000     0.603320000000     0.882210000000     0.0385181  
H191     H      0.207490000000     0.658720000000     0.882060000000     0.0383695  
H192     H      0.305820000000     0.658770000000     0.882040000000     0.0388315  
H193     H      0.470690000000     0.790140000000     0.785450000000     0.035972   
H194     H      0.041030000000     0.721710000000     0.785710000000     0.035836   
H195     H      0.039510000000     0.720010000000     0.729540000000     0.0357648  
H196     H      0.472510000000     0.791720000000     0.729280000000     0.0359749  
H197     H      0.470310000000     0.972460000000     0.785430000000     0.0362564  
H198     H      0.041320000000     0.540190000000     0.785720000000     0.035844   
H199     H      0.039790000000     0.541960000000     0.729560000000     0.0357153  
H200     H      0.472060000000     0.970940000000     0.729280000000     0.0360529  
H201     H      0.458050000000     0.908670000000     0.884490000000     0.0392511  
H202     H      0.056270000000     0.908920000000     0.879600000000     0.0392319  
H203     H      0.056270000000     0.853280000000     0.879590000000     0.0387808  
H204     H      0.458050000000     0.853530000000     0.884490000000     0.0388953  
H205     H      0.955150000000     0.603280000000     0.879710000000     0.0384302  
H206     H      0.553350000000     0.603530000000     0.884890000000     0.0386223  
H207     H      0.553350000000     0.658670000000     0.884880000000     0.0386726  
H208     H      0.955150000000     0.658920000000     0.879700000000     0.0383794  
H209     H      0.220930000000     0.722110000000     0.229190000000     0.0358965  
H210     H      0.291940000000     0.789840000000     0.229420000000     0.0360166  
H211     H      0.290190000000     0.791420000000     0.285570000000     0.0359504  
H212     H      0.222460000000     0.720400000000     0.285350000000     0.0358934  
H213     H      0.305880000000     0.756290000000     0.035180000000     0.0386923  
H214     H      0.207550000000     0.756080000000     0.035110000000     0.038645   
H215     H      0.207580000000     0.755960000000     0.979580000000     0.0386994  
H216     H      0.305910000000     0.756350000000     0.979630000000     0.0386947  
H217     H      0.221200000000     0.540540000000     0.229130000000     0.0359335  
H218     H      0.291560000000     0.972130000000     0.229470000000     0.0363336  
H219     H      0.289720000000     0.970600000000     0.285630000000     0.0360625  
H220     H      0.222720000000     0.542300000000     0.285300000000     0.0358543  
H221     H      0.305880000000     0.507480000000     0.035190000000     0.0386168  
H222     H      0.207590000000     0.004440000000     0.035120000000     0.0381217  
H223     H      0.207620000000     0.004400000000     0.979590000000     0.0381206  
H224     H      0.305910000000     0.507460000000     0.979640000000     0.0386091  
H225     H      0.206030000000     0.853290000000     0.135230000000     0.0387874  
H226     H      0.304250000000     0.853550000000     0.130400000000     0.0388803  
H227     H      0.304240000000     0.908690000000     0.130410000000     0.0393139  
H228     H      0.206030000000     0.908930000000     0.135260000000     0.0391842  
H229     H      0.307140000000     0.603290000000     0.135210000000     0.0385737  
H230     H      0.208940000000     0.603550000000     0.129970000000     0.0386798  
H231     H      0.208940000000     0.658690000000     0.129980000000     0.0386497  
H232     H      0.307140000000     0.658930000000     0.135210000000     0.0386253  
H233     H      0.469940000000     0.789470000000     0.229530000000     0.035957   
H234     H      0.041640000000     0.722470000000     0.229290000000     0.0358198  
H235     H      0.040130000000     0.720730000000     0.285460000000     0.0357424  
H236     H      0.471700000000     0.791070000000     0.285700000000     0.0360298  
H237     H      0.054750000000     0.757750000000     0.035260000000     0.0387138  
H238     H      0.456460000000     0.754690000000     0.035260000000     0.0386984  
H239     H      0.456470000000     0.754700000000     0.979710000000     0.0386851  
H240     H      0.054760000000     0.757740000000     0.979740000000     0.0387312  
H241     H      0.041260000000     0.972450000000     0.229430000000     0.0363625  
H242     H      0.470210000000     0.540140000000     0.229380000000     0.0360209  
H243     H      0.471960000000     0.541940000000     0.285560000000     0.0360252  
H244     H      0.039660000000     0.970900000000     0.285610000000     0.0360034  
H245     H      0.054790000000     0.006190000000     0.035280000000     0.0381475  
H246     H      0.956460000000     0.505810000000     0.035270000000     0.0384009  
H247     H      0.956470000000     0.505880000000     0.979720000000     0.0383757  
H248     H      0.054800000000     0.006090000000     0.979750000000     0.0381765  
H249     H      0.456420000000     0.908800000000     0.133100000000     0.0389829  
H250     H      0.054760000000     0.908850000000     0.132980000000     0.0394346  
H251     H      0.054840000000     0.853460000000     0.133100000000     0.0388455  
H252     H      0.456500000000     0.853390000000     0.132960000000     0.0387822  
H253     H      0.054830000000     0.658850000000     0.132680000000     0.0385609  
H254     H      0.456490000000     0.658800000000     0.132960000000     0.0386049  
H255     H      0.456560000000     0.603410000000     0.132840000000     0.0388289  
H256     H      0.054900000000     0.603450000000     0.132820000000     0.0383956  
H257     H      0.908990000000     0.304970000000     0.632610000000     0.0391376  
H258     H      0.908920000000     0.206630000000     0.632860000000     0.0392091  
H259     H      0.853530000000     0.206710000000     0.632690000000     0.0390276  
H260     H      0.853580000000     0.305040000000     0.632690000000     0.0386215  
H261     H      0.603530000000     0.206640000000     0.632970000000     0.0385539  
H262     H      0.603590000000     0.304970000000     0.633120000000     0.0386462  
H263     H      0.658980000000     0.304900000000     0.632950000000     0.0388014  
H264     H      0.658930000000     0.206560000000     0.633060000000     0.0383273  
H265     H      0.908970000000     0.057130000000     0.635200000000     0.0392455  
H266     H      0.908720000000     0.458930000000     0.630010000000     0.039259   
H267     H      0.853590000000     0.458930000000     0.629940000000     0.0389018  
H268     H      0.853330000000     0.057130000000     0.635140000000     0.0388164  
H269     H      0.603590000000     0.054230000000     0.630540000000     0.0387046  
H270     H      0.603340000000     0.456020000000     0.635410000000     0.0386185  
H271     H      0.658980000000     0.456020000000     0.635390000000     0.0385952  
H272     H      0.658720000000     0.054230000000     0.630520000000     0.0387387  
H273     H      0.756150000000     0.304940000000     0.479630000000     0.0387122  
H274     H      0.755940000000     0.206610000000     0.479620000000     0.0386275  
H275     H      0.755890000000     0.206600000000     0.535160000000     0.0386809  
H276     H      0.756270000000     0.304940000000     0.535160000000     0.0387003  
H277     H      0.754310000000     0.457510000000     0.479620000000     0.0387177  
H278     H      0.757370000000     0.055800000000     0.479610000000     0.0387163  
H279     H      0.757420000000     0.055800000000     0.535160000000     0.0386973  
H280     H      0.754380000000     0.457510000000     0.535150000000     0.0387071  
H281     H      0.004800000000     0.206630000000     0.479710000000     0.0381173  
H282     H      0.507840000000     0.304920000000     0.479730000000     0.0386559  
H283     H      0.507900000000     0.304910000000     0.535260000000     0.0386155  
H284     H      0.004840000000     0.206620000000     0.535260000000     0.038107   
H285     H      0.908710000000     0.303470000000     0.384830000000     0.039295   
H286     H      0.908960000000     0.205270000000     0.379690000000     0.0391624  
H287     H      0.853320000000     0.205270000000     0.379650000000     0.0387944  
H288     H      0.853570000000     0.303470000000     0.384780000000     0.0388774  
H289     H      0.603570000000     0.208170000000     0.384460000000     0.0386832  
H290     H      0.603320000000     0.306380000000     0.379530000000     0.0386027  
H291     H      0.658960000000     0.306390000000     0.379500000000     0.0386054  
H292     H      0.658710000000     0.208170000000     0.384430000000     0.0386189  
H293     H      0.006350000000     0.055820000000     0.479710000000     0.0381677  
H294     H      0.505970000000     0.457480000000     0.479730000000     0.0386126  
H295     H      0.506140000000     0.457480000000     0.535250000000     0.0385997  
H296     H      0.006360000000     0.055820000000     0.535260000000     0.0381621  
H297     H      0.853300000000     0.055750000000     0.381980000000     0.0388444  
H298     H      0.853230000000     0.457410000000     0.382290000000     0.0387806  
H299     H      0.908640000000     0.457330000000     0.382200000000     0.0389936  
H300     H      0.908690000000     0.055670000000     0.382150000000     0.0394408  
H301     H      0.603290000000     0.055810000000     0.381800000000     0.0384034  
H302     H      0.603250000000     0.457480000000     0.381970000000     0.0388051  
H303     H      0.658640000000     0.457400000000     0.381800000000     0.0386198  
H304     H      0.658690000000     0.055740000000     0.381890000000     0.0385525  
H305     H      0.721090000000     0.289800000000     0.785510000000     0.0360172  
H306     H      0.792140000000     0.222110000000     0.785430000000     0.0361088  
H307     H      0.790330000000     0.220360000000     0.729260000000     0.0360837  
H308     H      0.722630000000     0.291400000000     0.729330000000     0.0360483  
H309     H      0.792470000000     0.472800000000     0.785290000000     0.0359502  
H310     H      0.720760000000     0.039800000000     0.785630000000     0.035722   
H311     H      0.722260000000     0.041610000000     0.729470000000     0.0358549  
H312     H      0.790690000000     0.471270000000     0.729130000000     0.035986   
H313     H      0.707550000000     0.408720000000     0.881760000000     0.0386119  
H314     H      0.805890000000     0.408780000000     0.881900000000     0.0386232  
H315     H      0.805960000000     0.353370000000     0.881780000000     0.0384651  
H316     H      0.707630000000     0.353330000000     0.881900000000     0.0388181  
H317     H      0.805900000000     0.103380000000     0.881930000000     0.0385899  
H318     H      0.707560000000     0.103320000000     0.882210000000     0.0384616  
H319     H      0.707490000000     0.158720000000     0.882060000000     0.0383594  
H320     H      0.805820000000     0.158770000000     0.882040000000     0.0388798  
H321     H      0.970690000000     0.290140000000     0.785450000000     0.0360296  
H322     H      0.541030000000     0.221710000000     0.785710000000     0.0359043  
H323     H      0.539510000000     0.220010000000     0.729540000000     0.0359073  
H324     H      0.972510000000     0.291720000000     0.729280000000     0.036302   
H325     H      0.970310000000     0.472460000000     0.785430000000     0.0359951  
H326     H      0.541320000000     0.040190000000     0.785720000000     0.0357626  
H327     H      0.539790000000     0.041960000000     0.729560000000     0.0357967  
H328     H      0.972060000000     0.470940000000     0.729280000000     0.0362955  
H329     H      0.958050000000     0.408670000000     0.884490000000     0.0384012  
H330     H      0.556270000000     0.408920000000     0.879600000000     0.0385906  
H331     H      0.556270000000     0.353280000000     0.879590000000     0.0385537  
H332     H      0.958050000000     0.353530000000     0.884490000000     0.0384827  
H333     H      0.455150000000     0.103280000000     0.879710000000     0.0385478  
H334     H      0.053350000000     0.103530000000     0.884890000000     0.0386201  
H335     H      0.053360000000     0.158670000000     0.884880000000     0.0386999  
H336     H      0.455150000000     0.158920000000     0.879700000000     0.0385257  
H337     H      0.720930000000     0.222110000000     0.229190000000     0.0358943  
H338     H      0.791940000000     0.289840000000     0.229420000000     0.0360069  
H339     H      0.790190000000     0.291420000000     0.285570000000     0.0359639  
H340     H      0.722460000000     0.220400000000     0.285350000000     0.0358964  
H341     H      0.805880000000     0.256290000000     0.035180000000     0.0386887  
H342     H      0.707550000000     0.256080000000     0.035110000000     0.0386081  
H343     H      0.707580000000     0.255960000000     0.979580000000     0.0386112  
H344     H      0.805910000000     0.256340000000     0.979630000000     0.0386861  
H345     H      0.721210000000     0.040540000000     0.229130000000     0.0357718  
H346     H      0.791560000000     0.472130000000     0.229470000000     0.0360162  
H347     H      0.789720000000     0.470600000000     0.285630000000     0.0359754  
H348     H      0.722720000000     0.042300000000     0.285290000000     0.0357906  
H349     H      0.805870000000     0.007480000000     0.035190000000     0.038224   
H350     H      0.707590000000     0.504440000000     0.035120000000     0.0386168  
H351     H      0.707620000000     0.504400000000     0.979590000000     0.0386157  
H352     H      0.805910000000     0.007460000000     0.979640000000     0.0382015  
H353     H      0.706030000000     0.353290000000     0.135230000000     0.0386254  
H354     H      0.804250000000     0.353550000000     0.130400000000     0.038738   
H355     H      0.804250000000     0.408690000000     0.130410000000     0.0387642  
H356     H      0.706030000000     0.408930000000     0.135260000000     0.0385785  
H357     H      0.807140000000     0.103290000000     0.135210000000     0.0385845  
H358     H      0.708940000000     0.103550000000     0.129970000000     0.0386078  
H359     H      0.708940000000     0.158690000000     0.129980000000     0.0386412  
H360     H      0.807140000000     0.158930000000     0.135210000000     0.0386661  
H361     H      0.969940000000     0.289470000000     0.229530000000     0.0360638  
H362     H      0.541640000000     0.222470000000     0.229290000000     0.0359035  
H363     H      0.540130000000     0.220730000000     0.285460000000     0.0358919  
H364     H      0.971700000000     0.291070000000     0.285700000000     0.03635    
H365     H      0.554750000000     0.257750000000     0.035260000000     0.0386237  
H366     H      0.956470000000     0.254690000000     0.035260000000     0.0383956  
H367     H      0.956470000000     0.254700000000     0.979710000000     0.0384147  
H368     H      0.554760000000     0.257740000000     0.979740000000     0.0386361  
H369     H      0.541260000000     0.472450000000     0.229440000000     0.0360321  
H370     H      0.970210000000     0.040140000000     0.229380000000     0.0359831  
H371     H      0.971960000000     0.041940000000     0.285560000000     0.0363436  
H372     H      0.539660000000     0.470900000000     0.285610000000     0.0360089  
H373     H      0.554790000000     0.506190000000     0.035280000000     0.0386042  
H374     H      0.456460000000     0.005810000000     0.035270000000     0.0381492  
H375     H      0.456470000000     0.005880000000     0.979720000000     0.0381395  
H376     H      0.554800000000     0.506090000000     0.979750000000     0.0385961  
H377     H      0.956420000000     0.408800000000     0.133100000000     0.0381543  
H378     H      0.554760000000     0.408850000000     0.132980000000     0.0388092  
H379     H      0.554840000000     0.353460000000     0.133100000000     0.0386204  
H380     H      0.956500000000     0.353390000000     0.132960000000     0.0383481  
H381     H      0.554830000000     0.158850000000     0.132680000000     0.0385177  
H382     H      0.956490000000     0.158800000000     0.132960000000     0.0383863  
H383     H      0.956560000000     0.103410000000     0.132840000000     0.0385257  
H384     H      0.554900000000     0.103450000000     0.132820000000     0.03829    
H385     H      0.908990000000     0.804970000000     0.632610000000     0.039185   
H386     H      0.908920000000     0.706630000000     0.632860000000     0.0392175  
H387     H      0.853530000000     0.706710000000     0.632690000000     0.0390471  
H388     H      0.853580000000     0.805040000000     0.632690000000     0.0386753  
H389     H      0.603530000000     0.706640000000     0.632970000000     0.0385525  
H390     H      0.603590000000     0.804970000000     0.633120000000     0.0387153  
H391     H      0.658980000000     0.804900000000     0.632950000000     0.0388685  
H392     H      0.658930000000     0.706560000000     0.633060000000     0.0383262  
H393     H      0.908970000000     0.557130000000     0.635200000000     0.0392195  
H394     H      0.908720000000     0.958930000000     0.630010000000     0.0390202  
H395     H      0.853590000000     0.958930000000     0.629940000000     0.0386501  
H396     H      0.853330000000     0.557130000000     0.635140000000     0.0388014  
H397     H      0.603590000000     0.554230000000     0.630540000000     0.0386464  
H398     H      0.603340000000     0.956020000000     0.635410000000     0.0384436  
H399     H      0.658980000000     0.956020000000     0.635390000000     0.0384121  
H400     H      0.658720000000     0.554230000000     0.630520000000     0.0386928  
H401     H      0.756150000000     0.804940000000     0.479630000000     0.0387594  
H402     H      0.755940000000     0.706610000000     0.479620000000     0.0386304  
H403     H      0.755890000000     0.706600000000     0.535160000000     0.0386847  
H404     H      0.756270000000     0.804940000000     0.535160000000     0.0387478  
H405     H      0.754310000000     0.957510000000     0.479620000000     0.0384586  
H406     H      0.757370000000     0.555800000000     0.479610000000     0.0386746  
H407     H      0.757420000000     0.555800000000     0.535160000000     0.0386628  
H408     H      0.754380000000     0.957510000000     0.535150000000     0.0384881  
H409     H      0.004800000000     0.706630000000     0.479710000000     0.0381179  
H410     H      0.507840000000     0.804920000000     0.479730000000     0.0386714  
H411     H      0.507900000000     0.804910000000     0.535260000000     0.038679   
H412     H      0.004840000000     0.706620000000     0.535260000000     0.0381109  
H413     H      0.908710000000     0.803480000000     0.384830000000     0.0393393  
H414     H      0.908960000000     0.705270000000     0.379690000000     0.0391664  
H415     H      0.853320000000     0.705270000000     0.379650000000     0.0387997  
H416     H      0.853570000000     0.803480000000     0.384780000000     0.0389205  
H417     H      0.603570000000     0.708170000000     0.384460000000     0.0386826  
H418     H      0.603320000000     0.806380000000     0.379530000000     0.0386526  
H419     H      0.658960000000     0.806390000000     0.379500000000     0.0386686  
H420     H      0.658710000000     0.708170000000     0.384430000000     0.0386225  
H421     H      0.006350000000     0.555820000000     0.479710000000     0.0381342  
H422     H      0.505970000000     0.957480000000     0.479730000000     0.038381   
H423     H      0.506140000000     0.957480000000     0.535250000000     0.0383698  
H424     H      0.006360000000     0.555820000000     0.535260000000     0.0381228  
H425     H      0.853300000000     0.555750000000     0.381980000000     0.0388149  
H426     H      0.853230000000     0.957410000000     0.382290000000     0.0385481  
H427     H      0.908640000000     0.957330000000     0.382200000000     0.0387667  
H428     H      0.908690000000     0.555670000000     0.382150000000     0.0394041  
H429     H      0.603290000000     0.555810000000     0.381800000000     0.0383611  
H430     H      0.603250000000     0.957480000000     0.381970000000     0.038574   
H431     H      0.658640000000     0.957400000000     0.381800000000     0.0384086  
H432     H      0.658690000000     0.555740000000     0.381890000000     0.0385414  
H433     H      0.721090000000     0.789800000000     0.785510000000     0.0360975  
H434     H      0.792140000000     0.722110000000     0.785430000000     0.0361208  
H435     H      0.790330000000     0.720360000000     0.729260000000     0.0360951  
H436     H      0.722630000000     0.791400000000     0.729330000000     0.0361168  
H437     H      0.792470000000     0.972800000000     0.785290000000     0.0363143  
H438     H      0.720760000000     0.539800000000     0.785630000000     0.0358768  
H439     H      0.722260000000     0.541610000000     0.729470000000     0.0359225  
H440     H      0.790690000000     0.971270000000     0.729130000000     0.0361151  
H441     H      0.707550000000     0.908720000000     0.881760000000     0.0392405  
H442     H      0.805890000000     0.908780000000     0.881900000000     0.0391975  
H443     H      0.805960000000     0.853370000000     0.881780000000     0.0386531  
H444     H      0.707630000000     0.853330000000     0.881900000000     0.0390275  
H445     H      0.805900000000     0.603380000000     0.881930000000     0.0386824  
H446     H      0.707560000000     0.603320000000     0.882210000000     0.0385163  
H447     H      0.707490000000     0.658720000000     0.882060000000     0.0383628  
H448     H      0.805820000000     0.658770000000     0.882040000000     0.0388974  
H449     H      0.970690000000     0.790140000000     0.785450000000     0.0360944  
H450     H      0.541030000000     0.721710000000     0.785710000000     0.0359077  
H451     H      0.539510000000     0.720010000000     0.729540000000     0.035909   
H452     H      0.972510000000     0.791720000000     0.729280000000     0.036354   
H453     H      0.970310000000     0.972460000000     0.785430000000     0.036377   
H454     H      0.541320000000     0.540190000000     0.785720000000     0.0359076  
H455     H      0.539790000000     0.541960000000     0.729560000000     0.0358515  
H456     H      0.972060000000     0.970940000000     0.729280000000     0.0364276  
H457     H      0.958050000000     0.908670000000     0.884490000000     0.0389839  
H458     H      0.556270000000     0.908920000000     0.879600000000     0.0392183  
H459     H      0.556270000000     0.853280000000     0.879590000000     0.0387622  
H460     H      0.958050000000     0.853530000000     0.884490000000     0.0386755  
H461     H      0.455150000000     0.603280000000     0.879710000000     0.0386462  
H462     H      0.053350000000     0.603530000000     0.884890000000     0.0386708  
H463     H      0.053360000000     0.658670000000     0.884880000000     0.0387101  
H464     H      0.455150000000     0.658920000000     0.879700000000     0.0385523  
H465     H      0.720930000000     0.722110000000     0.229190000000     0.0359006  
H466     H      0.791940000000     0.789840000000     0.229420000000     0.0360753  
H467     H      0.790190000000     0.791420000000     0.285570000000     0.0360193  
H468     H      0.722460000000     0.720400000000     0.285350000000     0.0359007  
H469     H      0.805880000000     0.756290000000     0.035180000000     0.0387425  
H470     H      0.707550000000     0.756080000000     0.035110000000     0.038662   
H471     H      0.707580000000     0.755960000000     0.979580000000     0.0386652  
H472     H      0.805910000000     0.756350000000     0.979630000000     0.0387399  
H473     H      0.721200000000     0.540540000000     0.229130000000     0.0359454  
H474     H      0.791560000000     0.972130000000     0.229470000000     0.036416   
H475     H      0.789720000000     0.970600000000     0.285630000000     0.0361243  
H476     H      0.722720000000     0.542300000000     0.285300000000     0.0358619  
H477     H      0.805870000000     0.507480000000     0.035190000000     0.0386758  
H478     H      0.707590000000     0.004440000000     0.035120000000     0.0381284  
H479     H      0.707620000000     0.004400000000     0.979590000000     0.0381312  
H480     H      0.805910000000     0.507460000000     0.979640000000     0.0386582  
H481     H      0.706030000000     0.853290000000     0.135230000000     0.0388243  
H482     H      0.804250000000     0.853550000000     0.130400000000     0.0389373  
H483     H      0.804250000000     0.908690000000     0.130410000000     0.03936    
H484     H      0.706030000000     0.908930000000     0.135260000000     0.0391873  
H485     H      0.807140000000     0.603290000000     0.135210000000     0.0386517  
H486     H      0.708940000000     0.603550000000     0.129970000000     0.0386686  
H487     H      0.708940000000     0.658690000000     0.129980000000     0.0386703  
H488     H      0.807140000000     0.658930000000     0.135210000000     0.0386851  
H489     H      0.969940000000     0.789470000000     0.229530000000     0.0361346  
H490     H      0.541640000000     0.722470000000     0.229290000000     0.0359107  
H491     H      0.540130000000     0.720730000000     0.285460000000     0.0359004  
H492     H      0.971700000000     0.791070000000     0.285700000000     0.0364084  
H493     H      0.554750000000     0.757750000000     0.035260000000     0.0386813  
H494     H      0.956470000000     0.754690000000     0.035260000000     0.0384457  
H495     H      0.956470000000     0.754700000000     0.979710000000     0.0384651  
H496     H      0.554760000000     0.757740000000     0.979740000000     0.0386946  
H497     H      0.541260000000     0.972450000000     0.229430000000     0.0364555  
H498     H      0.970210000000     0.540140000000     0.229380000000     0.0361505  
H499     H      0.971960000000     0.541940000000     0.285560000000     0.0364407  
H500     H      0.539660000000     0.970900000000     0.285610000000     0.0361729  
H501     H      0.554790000000     0.006190000000     0.035280000000     0.0381339  
H502     H      0.456460000000     0.505810000000     0.035270000000     0.0386191  
H503     H      0.456470000000     0.505880000000     0.979720000000     0.038617   
H504     H      0.554800000000     0.006090000000     0.979750000000     0.0381338  
H505     H      0.956420000000     0.908800000000     0.133100000000     0.0387672  
H506     H      0.554760000000     0.908850000000     0.132980000000     0.0393997  
H507     H      0.554840000000     0.853460000000     0.133100000000     0.0388174  
H508     H      0.956500000000     0.853390000000     0.132960000000     0.0385485  
H509     H      0.554830000000     0.658850000000     0.132680000000     0.038523   
H510     H      0.956490000000     0.658800000000     0.132960000000     0.0383946  
H511     H      0.956560000000     0.603410000000     0.132840000000     0.0385916  
H512     H      0.554900000000     0.603450000000     0.132820000000     0.038369   
N1       N      0.413360000000     0.255770000000     0.632730000000    -0.175459   
N2       N      0.349150000000     0.255900000000     0.632680000000    -0.175403   
N3       N      0.099150000000     0.255830000000     0.633020000000    -0.175323   
N4       N      0.163360000000     0.255700000000     0.632970000000    -0.17543    
N5       N      0.413260000000     0.508050000000     0.632620000000    -0.175418   
N6       N      0.349040000000     0.508040000000     0.632550000000    -0.175371   
N7       N      0.099040000000     0.505110000000     0.632960000000    -0.175337   
N8       N      0.163270000000     0.505110000000     0.632940000000    -0.175342   
N9       N      0.256050000000     0.255770000000     0.475200000000    -0.175325   
N10      N      0.256090000000     0.255770000000     0.539580000000    -0.175239   
N11      N      0.255850000000     0.506660000000     0.475200000000    -0.175271   
N12      N      0.255910000000     0.506660000000     0.539580000000    -0.175332   
N13      N      0.006310000000     0.255770000000     0.475300000000    -0.175346   
N14      N      0.006360000000     0.255770000000     0.539680000000    -0.175418   
N15      N      0.413250000000     0.254360000000     0.382260000000    -0.175418   
N16      N      0.349030000000     0.254360000000     0.382200000000    -0.175392   
N17      N      0.099030000000     0.257290000000     0.382000000000    -0.175226   
N18      N      0.163250000000     0.257300000000     0.381970000000    -0.175412   
N19      N      0.006150000000     0.006650000000     0.475300000000    -0.177027   
N20      N      0.006250000000     0.506650000000     0.539680000000    -0.175435   
N21      N      0.348860000000     0.006610000000     0.382140000000    -0.177086   
N22      N      0.413070000000     0.006470000000     0.382190000000    -0.177098   
N23      N      0.098860000000     0.006670000000     0.381920000000    -0.176986   
N24      N      0.163070000000     0.006550000000     0.381870000000    -0.177076   
N25      N      0.256620000000     0.255960000000     0.789320000000    -0.176609   
N26      N      0.256470000000     0.255870000000     0.725450000000    -0.176611   
N27      N      0.256620000000     0.506290000000     0.789320000000    -0.176583   
N28      N      0.256460000000     0.506440000000     0.725440000000    -0.176628   
N29      N      0.256690000000     0.413150000000     0.881860000000    -0.175355   
N30      N      0.256820000000     0.348940000000     0.881870000000    -0.175358   
N31      N      0.256760000000     0.098940000000     0.882090000000    -0.175425   
N32      N      0.256630000000     0.163150000000     0.882060000000    -0.175377   
N33      N      0.005850000000     0.255940000000     0.789440000000    -0.178292   
N34      N      0.006020000000     0.255860000000     0.725550000000    -0.178984   
N35      N      0.005810000000     0.506310000000     0.789440000000    -0.178143   
N36      N      0.005930000000     0.506450000000     0.725550000000    -0.179007   
N37      N      0.007180000000     0.413210000000     0.882050000000    -0.177011   
N38      N      0.007180000000     0.348990000000     0.882050000000    -0.177003   
N39      N      0.004240000000     0.098990000000     0.882290000000    -0.17703    
N40      N      0.004240000000     0.163210000000     0.882280000000    -0.177045   
N41      N      0.256440000000     0.255980000000     0.225440000000    -0.176506   
N42      N      0.256310000000     0.255910000000     0.289330000000    -0.17656    
N43      N      0.256710000000     0.256180000000     0.039570000000    -0.175334   
N44      N      0.256750000000     0.256150000000     0.975180000000    -0.1753     
N45      N      0.256390000000     0.506320000000     0.225440000000    -0.176529   
N46      N      0.256200000000     0.506450000000     0.289320000000    -0.176589   
N47      N      0.256730000000     0.505970000000     0.039580000000    -0.175357   
N48      N      0.256770000000     0.505940000000     0.975190000000    -0.175363   
N49      N      0.255120000000     0.349000000000     0.132810000000    -0.17542    
N50      N      0.255120000000     0.413230000000     0.132830000000    -0.175401   
N51      N      0.258060000000     0.099000000000     0.132590000000    -0.175322   
N52      N      0.258060000000     0.163220000000     0.132610000000    -0.175344   
N53      N      0.005780000000     0.255980000000     0.225550000000    -0.178215   
N54      N      0.005920000000     0.255900000000     0.289440000000    -0.179038   
N55      N      0.005610000000     0.256220000000     0.039680000000    -0.176937   
N56      N      0.005620000000     0.256210000000     0.975300000000    -0.176954   
N57      N      0.005720000000     0.006290000000     0.225560000000    -0.180662   
N58      N      0.005820000000     0.006430000000     0.289440000000    -0.180721   
N59      N      0.005630000000     0.506010000000     0.039700000000    -0.17699    
N60      N      0.005640000000     0.505990000000     0.975310000000    -0.176979   
N61      N      0.005560000000     0.413230000000     0.133010000000    -0.177068   
N62      N      0.005700000000     0.349020000000     0.133000000000    -0.177053   
N63      N      0.005630000000     0.163230000000     0.132810000000    -0.177101   
N64      N      0.005760000000     0.099020000000     0.132810000000    -0.177006   
N65      N      0.413360000000     0.755770000000     0.632730000000    -0.175411   
N66      N      0.349150000000     0.755900000000     0.632680000000    -0.175404   
N67      N      0.099150000000     0.755830000000     0.633020000000    -0.175322   
N68      N      0.163360000000     0.755700000000     0.632970000000    -0.175429   
N69      N      0.413260000000     0.008050000000     0.632620000000    -0.177067   
N70      N      0.349040000000     0.008040000000     0.632550000000    -0.177024   
N71      N      0.099040000000     0.005110000000     0.632960000000    -0.176922   
N72      N      0.163270000000     0.005110000000     0.632940000000    -0.176977   
N73      N      0.256050000000     0.755770000000     0.475200000000    -0.175326   
N74      N      0.256090000000     0.755770000000     0.539580000000    -0.17524    
N75      N      0.255850000000     0.006660000000     0.475200000000    -0.176907   
N76      N      0.255910000000     0.006660000000     0.539580000000    -0.176968   
N77      N      0.006310000000     0.755770000000     0.475300000000    -0.175382   
N78      N      0.006360000000     0.755770000000     0.539680000000    -0.175409   
N79      N      0.413250000000     0.754360000000     0.382260000000    -0.175422   
N80      N      0.349030000000     0.754360000000     0.382200000000    -0.175396   
N81      N      0.099030000000     0.757290000000     0.382000000000    -0.175273   
N82      N      0.163250000000     0.757300000000     0.381970000000    -0.175409   
N83      N      0.006150000000     0.506650000000     0.475300000000    -0.175379   
N84      N      0.006250000000     0.006650000000     0.539680000000    -0.177077   
N85      N      0.348860000000     0.506610000000     0.382140000000    -0.175437   
N86      N      0.413070000000     0.506470000000     0.382190000000    -0.175448   
N87      N      0.098860000000     0.506670000000     0.381920000000    -0.175347   
N88      N      0.163070000000     0.506550000000     0.381870000000    -0.175398   
N89      N      0.256620000000     0.755960000000     0.789320000000    -0.176604   
N90      N      0.256470000000     0.755870000000     0.725450000000    -0.176608   
N91      N      0.256620000000     0.006280000000     0.789320000000    -0.179016   
N92      N      0.256460000000     0.006440000000     0.725440000000    -0.178255   
N93      N      0.256690000000     0.913150000000     0.881860000000    -0.174996   
N94      N      0.256820000000     0.848940000000     0.881870000000    -0.175326   
N95      N      0.256760000000     0.598940000000     0.882090000000    -0.175467   
N96      N      0.256630000000     0.663150000000     0.882060000000    -0.17538    
N97      N      0.005850000000     0.755940000000     0.789440000000    -0.178285   
N98      N      0.006020000000     0.755860000000     0.725550000000    -0.178978   
N99      N      0.005810000000     0.006310000000     0.789440000000    -0.180542   
N100     N      0.005930000000     0.006450000000     0.725550000000    -0.180529   
N101     N      0.007180000000     0.913210000000     0.882050000000    -0.176648   
N102     N      0.007180000000     0.848990000000     0.882050000000    -0.176968   
N103     N      0.004240000000     0.598990000000     0.882290000000    -0.177074   
N104     N      0.004240000000     0.663210000000     0.882280000000    -0.176984   
N105     N      0.256440000000     0.755980000000     0.225440000000    -0.176501   
N106     N      0.256310000000     0.755910000000     0.289330000000    -0.176556   
N107     N      0.256710000000     0.756180000000     0.039570000000    -0.175319   
N108     N      0.256750000000     0.756150000000     0.975180000000    -0.175285   
N109     N      0.256390000000     0.006320000000     0.225440000000    -0.178951   
N110     N      0.256200000000     0.006450000000     0.289320000000    -0.178152   
N111     N      0.256730000000     0.005970000000     0.039580000000    -0.175458   
N112     N      0.256770000000     0.005940000000     0.975190000000    -0.175464   
N113     N      0.255120000000     0.849000000000     0.132810000000    -0.175388   
N114     N      0.255120000000     0.913230000000     0.132830000000    -0.175041   
N115     N      0.258060000000     0.599000000000     0.132590000000    -0.175378   
N116     N      0.258060000000     0.663230000000     0.132610000000    -0.175406   
N117     N      0.005780000000     0.755980000000     0.225550000000    -0.17821    
N118     N      0.005920000000     0.755900000000     0.289440000000    -0.179034   
N119     N      0.005610000000     0.756220000000     0.039680000000    -0.176922   
N120     N      0.005620000000     0.756210000000     0.975300000000    -0.176937   
N121     N      0.005720000000     0.506290000000     0.225560000000    -0.178281   
N122     N      0.005820000000     0.506430000000     0.289440000000    -0.179085   
N123     N      0.005630000000     0.006010000000     0.039700000000    -0.177087   
N124     N      0.005640000000     0.005990000000     0.975310000000    -0.177076   
N125     N      0.005560000000     0.913230000000     0.133010000000    -0.176705   
N126     N      0.005700000000     0.849020000000     0.133000000000    -0.177019   
N127     N      0.005630000000     0.663230000000     0.132810000000    -0.177099   
N128     N      0.005760000000     0.599020000000     0.132810000000    -0.17705    
N129     N      0.913360000000     0.255770000000     0.632730000000    -0.17511    
N130     N      0.849150000000     0.255900000000     0.632680000000    -0.175358   
N131     N      0.599150000000     0.255830000000     0.633020000000    -0.175366   
N132     N      0.663360000000     0.255700000000     0.632970000000    -0.175434   
N133     N      0.913260000000     0.508050000000     0.632620000000    -0.175058   
N134     N      0.849040000000     0.508040000000     0.632550000000    -0.175342   
N135     N      0.599040000000     0.505110000000     0.632960000000    -0.175387   
N136     N      0.663270000000     0.505110000000     0.632940000000    -0.175346   
N137     N      0.756050000000     0.255770000000     0.475200000000    -0.17531    
N138     N      0.756090000000     0.255770000000     0.539580000000    -0.175224   
N139     N      0.755850000000     0.506660000000     0.475200000000    -0.175255   
N140     N      0.755920000000     0.506660000000     0.539580000000    -0.175313   
N141     N      0.506310000000     0.255770000000     0.475300000000    -0.175245   
N142     N      0.506360000000     0.255770000000     0.539680000000    -0.175318   
N143     N      0.913250000000     0.254360000000     0.382260000000    -0.175056   
N144     N      0.849030000000     0.254360000000     0.382200000000    -0.175361   
N145     N      0.599030000000     0.257290000000     0.382000000000    -0.175263   
N146     N      0.663250000000     0.257300000000     0.381970000000    -0.175416   
N147     N      0.506150000000     0.006650000000     0.475300000000    -0.176929   
N148     N      0.506250000000     0.506650000000     0.539680000000    -0.175333   
N149     N      0.848860000000     0.006610000000     0.382140000000    -0.177062   
N150     N      0.913070000000     0.006470000000     0.382190000000    -0.176727   
N151     N      0.598860000000     0.006670000000     0.381920000000    -0.177028   
N152     N      0.663070000000     0.006550000000     0.381870000000    -0.177081   
N153     N      0.756620000000     0.255960000000     0.789320000000    -0.17661    
N154     N      0.756470000000     0.255870000000     0.725450000000    -0.176602   
N155     N      0.756620000000     0.506290000000     0.789320000000    -0.176629   
N156     N      0.756460000000     0.506440000000     0.725440000000    -0.17661    
N157     N      0.756700000000     0.413150000000     0.881860000000    -0.175369   
N158     N      0.756820000000     0.348940000000     0.881870000000    -0.175371   
N159     N      0.756760000000     0.098940000000     0.882090000000    -0.175425   
N160     N      0.756630000000     0.163150000000     0.882060000000    -0.175381   
N161     N      0.505850000000     0.255940000000     0.789440000000    -0.176653   
N162     N      0.506020000000     0.255860000000     0.725550000000    -0.176572   
N163     N      0.505810000000     0.506310000000     0.789440000000    -0.176551   
N164     N      0.505930000000     0.506450000000     0.725550000000    -0.176597   
N165     N      0.507180000000     0.413210000000     0.882050000000    -0.175346   
N166     N      0.507180000000     0.348990000000     0.882050000000    -0.175384   
N167     N      0.504240000000     0.098990000000     0.882290000000    -0.175362   
N168     N      0.504240000000     0.163210000000     0.882280000000    -0.17541    
N169     N      0.756440000000     0.255980000000     0.225440000000    -0.176502   
N170     N      0.756310000000     0.255910000000     0.289330000000    -0.176555   
N171     N      0.756710000000     0.256180000000     0.039570000000    -0.175324   
N172     N      0.756750000000     0.256150000000     0.975180000000    -0.17534    
N173     N      0.756390000000     0.506320000000     0.225440000000    -0.1765     
N174     N      0.756200000000     0.506450000000     0.289320000000    -0.176589   
N175     N      0.756730000000     0.505970000000     0.039580000000    -0.175349   
N176     N      0.756770000000     0.505940000000     0.975190000000    -0.175319   
N177     N      0.755120000000     0.349000000000     0.132810000000    -0.175385   
N178     N      0.755120000000     0.413230000000     0.132830000000    -0.175364   
N179     N      0.758050000000     0.099000000000     0.132590000000    -0.175319   
N180     N      0.758060000000     0.163220000000     0.132610000000    -0.175295   
N181     N      0.505780000000     0.255980000000     0.225550000000    -0.176628   
N182     N      0.505930000000     0.255900000000     0.289440000000    -0.176623   
N183     N      0.505610000000     0.256220000000     0.039680000000    -0.175262   
N184     N      0.505620000000     0.256210000000     0.975300000000    -0.175317   
N185     N      0.505720000000     0.006290000000     0.225560000000    -0.179051   
N186     N      0.505820000000     0.006430000000     0.289440000000    -0.178322   
N187     N      0.505620000000     0.506010000000     0.039700000000    -0.17534    
N188     N      0.505640000000     0.505990000000     0.975310000000    -0.175334   
N189     N      0.505560000000     0.413230000000     0.133010000000    -0.175414   
N190     N      0.505700000000     0.349020000000     0.133000000000    -0.175406   
N191     N      0.505630000000     0.163230000000     0.132810000000    -0.175456   
N192     N      0.505760000000     0.099020000000     0.132810000000    -0.175356   
N193     N      0.913360000000     0.755770000000     0.632730000000    -0.175113   
N194     N      0.849150000000     0.755900000000     0.632680000000    -0.175309   
N195     N      0.599150000000     0.755830000000     0.633020000000    -0.175365   
N196     N      0.663360000000     0.755700000000     0.632970000000    -0.175433   
N197     N      0.913260000000     0.008050000000     0.632620000000    -0.176639   
N198     N      0.849040000000     0.008040000000     0.632550000000    -0.176998   
N199     N      0.599040000000     0.005110000000     0.632960000000    -0.176973   
N200     N      0.663270000000     0.005110000000     0.632940000000    -0.176987   
N201     N      0.756050000000     0.755770000000     0.475200000000    -0.175311   
N202     N      0.756090000000     0.755770000000     0.539580000000    -0.175224   
N203     N      0.755850000000     0.006660000000     0.475200000000    -0.176891   
N204     N      0.755920000000     0.006660000000     0.539580000000    -0.176953   
N205     N      0.506310000000     0.755770000000     0.475300000000    -0.175281   
N206     N      0.506360000000     0.755770000000     0.539680000000    -0.175308   
N207     N      0.913250000000     0.754360000000     0.382260000000    -0.17506    
N208     N      0.849030000000     0.754360000000     0.382200000000    -0.175364   
N209     N      0.599030000000     0.757290000000     0.382000000000    -0.17531    
N210     N      0.663250000000     0.757300000000     0.381970000000    -0.175414   
N211     N      0.506150000000     0.506650000000     0.475300000000    -0.175276   
N212     N      0.506250000000     0.006650000000     0.539680000000    -0.176979   
N213     N      0.848860000000     0.506610000000     0.382140000000    -0.175412   
N214     N      0.913070000000     0.506470000000     0.382190000000    -0.175068   
N215     N      0.598860000000     0.506670000000     0.381920000000    -0.175387   
N216     N      0.663070000000     0.506550000000     0.381870000000    -0.175406   
N217     N      0.756620000000     0.755960000000     0.789320000000    -0.176606   
N218     N      0.756470000000     0.755870000000     0.725450000000    -0.176598   
N219     N      0.756620000000     0.006280000000     0.789320000000    -0.179064   
N220     N      0.756460000000     0.006440000000     0.725440000000    -0.178239   
N221     N      0.756700000000     0.913150000000     0.881860000000    -0.17501    
N222     N      0.756820000000     0.848940000000     0.881870000000    -0.175339   
N223     N      0.756760000000     0.598940000000     0.882090000000    -0.175467   
N224     N      0.756630000000     0.663150000000     0.882060000000    -0.175385   
N225     N      0.505850000000     0.755940000000     0.789440000000    -0.176647   
N226     N      0.506020000000     0.755860000000     0.725550000000    -0.176567   
N227     N      0.505810000000     0.006310000000     0.789440000000    -0.178963   
N228     N      0.505930000000     0.006450000000     0.725550000000    -0.178131   
N229     N      0.507180000000     0.913210000000     0.882050000000    -0.174986   
N230     N      0.507180000000     0.848990000000     0.882050000000    -0.175351   
N231     N      0.504240000000     0.598990000000     0.882290000000    -0.175406   
N232     N      0.504240000000     0.663210000000     0.882280000000    -0.175347   
N233     N      0.756440000000     0.755980000000     0.225440000000    -0.176496   
N234     N      0.756310000000     0.755910000000     0.289330000000    -0.176551   
N235     N      0.756710000000     0.756180000000     0.039570000000    -0.175308   
N236     N      0.756750000000     0.756150000000     0.975180000000    -0.175324   
N237     N      0.756390000000     0.006320000000     0.225440000000    -0.178916   
N238     N      0.756200000000     0.006450000000     0.289320000000    -0.178153   
N239     N      0.756730000000     0.005970000000     0.039580000000    -0.17545    
N240     N      0.756770000000     0.005940000000     0.975190000000    -0.175423   
N241     N      0.755120000000     0.849000000000     0.132810000000    -0.175354   
N242     N      0.755120000000     0.913230000000     0.132830000000    -0.175005   
N243     N      0.758050000000     0.599000000000     0.132590000000    -0.175375   
N244     N      0.758060000000     0.663230000000     0.132610000000    -0.175357   
N245     N      0.505780000000     0.755980000000     0.225550000000    -0.176648   
N246     N      0.505930000000     0.755900000000     0.289440000000    -0.176614   
N247     N      0.505610000000     0.756220000000     0.039680000000    -0.175248   
N248     N      0.505620000000     0.756210000000     0.975300000000    -0.175301   
N249     N      0.505720000000     0.506290000000     0.225560000000    -0.176655   
N250     N      0.505820000000     0.506430000000     0.289440000000    -0.176702   
N251     N      0.505620000000     0.006010000000     0.039700000000    -0.175442   
N252     N      0.505640000000     0.005990000000     0.975310000000    -0.175436   
N253     N      0.505560000000     0.913230000000     0.133010000000    -0.175055   
N254     N      0.505700000000     0.849020000000     0.133000000000    -0.175375   
N255     N      0.505630000000     0.663230000000     0.132810000000    -0.175453   
N256     N      0.505760000000     0.599020000000     0.132810000000    -0.175399   
O1       O      0.031260000000     0.003940000000     0.179550000000    -0.394777   
O2       O      0.031240000000     0.006820000000     0.086100000000    -0.394407   
O3       O      0.031290000000     0.052590000000     0.133840000000    -0.392736   
O4       O      0.031230000000     0.459360000000     0.131830000000    -0.395134   
O5       O      0.480030000000     0.459670000000     0.133990000000    -0.394312   
O6       O      0.480090000000     0.052890000000     0.131720000000    -0.395919   
O7       O      0.480020000000     0.505300000000     0.086110000000    -0.395169   
O8       O      0.480110000000     0.508450000000     0.179570000000    -0.394698   
O9       O      0.031230000000     0.257040000000     0.086080000000    -0.394194   
O10      O      0.031300000000     0.253800000000     0.179510000000    -0.393613   
O11      O      0.031270000000     0.209380000000     0.131640000000    -0.395173   
O12      O      0.031260000000     0.302600000000     0.133970000000    -0.393175   
O13      O      0.480060000000     0.302870000000     0.131800000000    -0.396414   
O14      O      0.480080000000     0.209650000000     0.133900000000    -0.394446   
O15      O      0.480150000000     0.258320000000     0.179580000000    -0.394709   
O16      O      0.480020000000     0.255320000000     0.086110000000    -0.395165   
O17      O      0.282010000000     0.503430000000     0.179480000000    -0.394711   
O18      O      0.282280000000     0.506750000000     0.086020000000    -0.395081   
O19      O      0.283090000000     0.052280000000     0.134030000000    -0.393265   
O20      O      0.281240000000     0.459080000000     0.131490000000    -0.396969   
O21      O      0.230080000000     0.459960000000     0.134080000000    -0.393863   
O22      O      0.231930000000     0.053150000000     0.131240000000    -0.396245   
O23      O      0.231060000000     0.505320000000     0.085950000000    -0.395394   
O24      O      0.230960000000     0.508980000000     0.179370000000    -0.394745   
O25      O      0.282280000000     0.255560000000     0.086010000000    -0.395105   
O26      O      0.282050000000     0.258780000000     0.179460000000    -0.39463    
O27      O      0.283100000000     0.209960000000     0.133970000000    -0.393748   
O28      O      0.281250000000     0.303160000000     0.131510000000    -0.396975   
O29      O      0.230080000000     0.302270000000     0.134000000000    -0.393707   
O30      O      0.231940000000     0.209070000000     0.131320000000    -0.397111   
O31      O      0.230990000000     0.253330000000     0.179380000000    -0.394777   
O32      O      0.231050000000     0.256770000000     0.085940000000    -0.395306   
O33      O      0.031280000000     0.505430000000     0.928920000000    -0.394012   
O34      O      0.031290000000     0.508910000000     0.835490000000    -0.393586   
O35      O      0.030360000000     0.053140000000     0.883560000000    -0.395135   
O36      O      0.032220000000     0.459950000000     0.880850000000    -0.392603   
O37      O      0.481050000000     0.459060000000     0.883360000000    -0.397055   
O38      O      0.479200000000     0.052260000000     0.880940000000    -0.393232   
O39      O      0.480230000000     0.503470000000     0.835430000000    -0.394624   
O40      O      0.480050000000     0.506630000000     0.928890000000    -0.395215   
O41      O      0.031260000000     0.256880000000     0.928910000000    -0.394107   
O42      O      0.031300000000     0.253250000000     0.835490000000    -0.3936     
O43      O      0.032220000000     0.302260000000     0.880790000000    -0.392484   
O44      O      0.030360000000     0.209070000000     0.883610000000    -0.39564    
O45      O      0.479200000000     0.209940000000     0.880860000000    -0.393646   
O46      O      0.481050000000     0.303130000000     0.883410000000    -0.396823   
O47      O      0.480250000000     0.258800000000     0.835410000000    -0.394647   
O48      O      0.480040000000     0.255450000000     0.928870000000    -0.39498    
O49      O      0.231160000000     0.505110000000     0.928790000000    -0.395429   
O50      O      0.231100000000     0.508400000000     0.835370000000    -0.394822   
O51      O      0.231140000000     0.459570000000     0.880880000000    -0.394459   
O52      O      0.231120000000     0.052790000000     0.883250000000    -0.396018   
O53      O      0.282310000000     0.052530000000     0.880990000000    -0.393927   
O54      O      0.282340000000     0.459310000000     0.883060000000    -0.396414   
O55      O      0.282260000000     0.503880000000     0.835300000000    -0.394452   
O56      O      0.282370000000     0.506830000000     0.928770000000    -0.395201   
O57      O      0.282360000000     0.256860000000     0.928770000000    -0.395065   
O58      O      0.282260000000     0.253740000000     0.835300000000    -0.394573   
O59      O      0.282350000000     0.302500000000     0.880900000000    -0.3945     
O60      O      0.282290000000     0.209290000000     0.883140000000    -0.39638    
O61      O      0.231090000000     0.209590000000     0.881040000000    -0.394378   
O62      O      0.231150000000     0.302810000000     0.883070000000    -0.396404   
O63      O      0.231100000000     0.258250000000     0.835340000000    -0.394857   
O64      O      0.231140000000     0.255340000000     0.928780000000    -0.395454   
O65      O      0.005290000000     0.481010000000     0.428910000000    -0.395805   
O66      O      0.008140000000     0.480930000000     0.335470000000    -0.395275   
O67      O      0.052730000000     0.481000000000     0.383170000000    -0.39583    
O68      O      0.459500000000     0.480940000000     0.381190000000    -0.394428   
O69      O      0.459200000000     0.032140000000     0.383270000000    -0.395231   
O70      O      0.052420000000     0.032200000000     0.380970000000    -0.392667   
O71      O      0.003630000000     0.032080000000     0.335400000000    -0.394615   
O72      O      0.006810000000     0.032230000000     0.428870000000    -0.394164   
O73      O      0.008820000000     0.230340000000     0.335420000000    -0.395218   
O74      O      0.005510000000     0.230180000000     0.428870000000    -0.395471   
O75      O      0.459980000000     0.229320000000     0.380880000000    -0.393799   
O76      O      0.053170000000     0.231170000000     0.383400000000    -0.396314   
O77      O      0.052300000000     0.282340000000     0.380750000000    -0.393182   
O78      O      0.459100000000     0.280480000000     0.383610000000    -0.396877   
O79      O      0.006940000000     0.281400000000     0.428900000000    -0.395601   
O80      O      0.003270000000     0.281390000000     0.335470000000    -0.395777   
O81      O      0.258320000000     0.480940000000     0.335370000000    -0.394849   
O82      O      0.255020000000     0.481020000000     0.428810000000    -0.395321   
O83      O      0.209490000000     0.480990000000     0.380890000000    -0.394397   
O84      O      0.302700000000     0.480970000000     0.383270000000    -0.396585   
O85      O      0.302450000000     0.032160000000     0.381000000000    -0.393225   
O86      O      0.209220000000     0.032190000000     0.383050000000    -0.39514    
O87      O      0.256740000000     0.032240000000     0.428770000000    -0.393832   
O88      O      0.253800000000     0.032090000000     0.335300000000    -0.39352    
O89      O      0.253490000000     0.230340000000     0.335320000000    -0.394751   
O90      O      0.256680000000     0.230180000000     0.428780000000    -0.39509    
O91      O      0.209100000000     0.231170000000     0.383270000000    -0.396979   
O92      O      0.302300000000     0.229320000000     0.380830000000    -0.393617   
O93      O      0.303180000000     0.280490000000     0.383440000000    -0.396908   
O94      O      0.209980000000     0.282340000000     0.380740000000    -0.393641   
O95      O      0.255470000000     0.281410000000     0.428810000000    -0.395202   
O96      O      0.258930000000     0.281400000000     0.335370000000    -0.39479    
O97      O      0.003330000000     0.480990000000     0.679490000000    -0.396039   
O98      O      0.006840000000     0.481010000000     0.586070000000    -0.395562   
O99      O      0.052310000000     0.480060000000     0.634160000000    -0.393061   
O100     O      0.459110000000     0.481920000000     0.631410000000    -0.397075   
O101     O      0.459990000000     0.033080000000     0.634030000000    -0.392518   
O102     O      0.053190000000     0.031240000000     0.631650000000    -0.394965   
O103     O      0.005630000000     0.032240000000     0.586110000000    -0.394196   
O104     O      0.008780000000     0.032050000000     0.679570000000    -0.393854   
O105     O      0.008420000000     0.230250000000     0.679560000000    -0.395092   
O106     O      0.005480000000     0.230170000000     0.586100000000    -0.395627   
O107     O      0.053000000000     0.230190000000     0.631820000000    -0.395835   
O108     O      0.459780000000     0.230220000000     0.633860000000    -0.394486   
O109     O      0.459520000000     0.281410000000     0.631620000000    -0.39656    
O110     O      0.052730000000     0.281390000000     0.634000000000    -0.393751   
O111     O      0.007190000000     0.281380000000     0.586080000000    -0.395637   
O112     O      0.003900000000     0.281410000000     0.679520000000    -0.395845   
O113     O      0.253520000000     0.032030000000     0.679470000000    -0.393433   
O114     O      0.256740000000     0.032240000000     0.586010000000    -0.393853   
O115     O      0.209120000000     0.031230000000     0.631530000000    -0.395512   
O116     O      0.302320000000     0.033080000000     0.633970000000    -0.392639   
O117     O      0.303190000000     0.481920000000     0.631210000000    -0.396992   
O118     O      0.210000000000     0.480060000000     0.634150000000    -0.393583   
O119     O      0.255310000000     0.481020000000     0.585970000000    -0.39532    
O120     O      0.259070000000     0.480980000000     0.679390000000    -0.394666   
O121     O      0.254100000000     0.281410000000     0.679430000000    -0.394707   
O122     O      0.256930000000     0.281390000000     0.585980000000    -0.395321   
O123     O      0.209490000000     0.281370000000     0.631740000000    -0.396412   
O124     O      0.302720000000     0.281440000000     0.633700000000    -0.39446    
O125     O      0.303020000000     0.230240000000     0.631590000000    -0.396503   
O126     O      0.209800000000     0.230170000000     0.633900000000    -0.394338   
O127     O      0.255410000000     0.230170000000     0.586000000000    -0.395284   
O128     O      0.258610000000     0.230250000000     0.679460000000    -0.39461    
O129     O      0.031260000000     0.503940000000     0.179550000000    -0.39369    
O130     O      0.031240000000     0.506820000000     0.086100000000    -0.394161   
O131     O      0.031290000000     0.552590000000     0.133840000000    -0.393287   
O132     O      0.031230000000     0.959360000000     0.131820000000    -0.391592   
O133     O      0.480030000000     0.959670000000     0.133990000000    -0.390762   
O134     O      0.480090000000     0.552890000000     0.131720000000    -0.3965     
O135     O      0.480020000000     0.005300000000     0.086110000000    -0.395489   
O136     O      0.480110000000     0.008450000000     0.179570000000    -0.395179   
O137     O      0.031230000000     0.757040000000     0.086080000000    -0.394172   
O138     O      0.031300000000     0.753800000000     0.179510000000    -0.393612   
O139     O      0.031270000000     0.709390000000     0.131640000000    -0.395216   
O140     O      0.031260000000     0.802600000000     0.133970000000    -0.393125   
O141     O      0.480060000000     0.802870000000     0.131800000000    -0.396341   
O142     O      0.480080000000     0.709650000000     0.133900000000    -0.394431   
O143     O      0.480150000000     0.758320000000     0.179580000000    -0.394702   
O144     O      0.480020000000     0.755320000000     0.086110000000    -0.395134   
O145     O      0.282010000000     0.003430000000     0.179480000000    -0.395801   
O146     O      0.282280000000     0.006750000000     0.086020000000    -0.395336   
O147     O      0.283090000000     0.552280000000     0.134030000000    -0.393718   
O148     O      0.281240000000     0.959080000000     0.131490000000    -0.39343    
O149     O      0.230080000000     0.959960000000     0.134080000000    -0.390308   
O150     O      0.231930000000     0.553150000000     0.131240000000    -0.396931   
O151     O      0.231060000000     0.005320000000     0.085950000000    -0.395713   
O152     O      0.230960000000     0.008980000000     0.179370000000    -0.395214   
O153     O      0.282280000000     0.755560000000     0.086010000000    -0.395076   
O154     O      0.282050000000     0.758780000000     0.179460000000    -0.39462    
O155     O      0.283100000000     0.709960000000     0.133970000000    -0.393793   
O156     O      0.281250000000     0.803160000000     0.131510000000    -0.396904   
O157     O      0.230080000000     0.802270000000     0.134000000000    -0.393635   
O158     O      0.231940000000     0.709070000000     0.131320000000    -0.397156   
O159     O      0.230990000000     0.753330000000     0.179380000000    -0.394764   
O160     O      0.231050000000     0.756770000000     0.085940000000    -0.395272   
O161     O      0.031280000000     0.005430000000     0.928920000000    -0.394334   
O162     O      0.031290000000     0.008910000000     0.835490000000    -0.394028   
O163     O      0.030360000000     0.553140000000     0.883560000000    -0.395721   
O164     O      0.032220000000     0.959950000000     0.880850000000    -0.389046   
O165     O      0.481050000000     0.959060000000     0.883360000000    -0.393508   
O166     O      0.479200000000     0.552260000000     0.880940000000    -0.393761   
O167     O      0.480230000000     0.003460000000     0.835430000000    -0.395716   
O168     O      0.480050000000     0.006630000000     0.928890000000    -0.395466   
O169     O      0.031260000000     0.756880000000     0.928910000000    -0.394074   
O170     O      0.031300000000     0.753250000000     0.835490000000    -0.393587   
O171     O      0.032220000000     0.802260000000     0.880790000000    -0.39241    
O172     O      0.030360000000     0.709070000000     0.883610000000    -0.395739   
O173     O      0.479200000000     0.709940000000     0.880860000000    -0.393744   
O174     O      0.481050000000     0.803130000000     0.883410000000    -0.396753   
O175     O      0.480250000000     0.758800000000     0.835410000000    -0.394637   
O176     O      0.480040000000     0.755450000000     0.928870000000    -0.394951   
O177     O      0.231160000000     0.005110000000     0.928790000000    -0.395748   
O178     O      0.231100000000     0.008400000000     0.835370000000    -0.395279   
O179     O      0.231140000000     0.959570000000     0.880880000000    -0.390899   
O180     O      0.231120000000     0.552790000000     0.883250000000    -0.396603   
O181     O      0.282310000000     0.552530000000     0.880990000000    -0.394472   
O182     O      0.282340000000     0.959310000000     0.883060000000    -0.392879   
O183     O      0.282260000000     0.003880000000     0.835300000000    -0.395557   
O184     O      0.282370000000     0.006830000000     0.928770000000    -0.395456   
O185     O      0.282360000000     0.756860000000     0.928770000000    -0.395035   
O186     O      0.282260000000     0.753740000000     0.835300000000    -0.39456    
O187     O      0.282350000000     0.802500000000     0.880900000000    -0.394436   
O188     O      0.282290000000     0.709290000000     0.883140000000    -0.396389   
O189     O      0.231090000000     0.709590000000     0.881040000000    -0.394391   
O190     O      0.231150000000     0.802810000000     0.883070000000    -0.39633    
O191     O      0.231100000000     0.758250000000     0.835340000000    -0.394845   
O192     O      0.231140000000     0.755340000000     0.928780000000    -0.395421   
O193     O      0.005290000000     0.981010000000     0.428910000000    -0.391617   
O194     O      0.008140000000     0.980930000000     0.335470000000    -0.391092   
O195     O      0.052730000000     0.981000000000     0.383170000000    -0.391673   
O196     O      0.459500000000     0.980940000000     0.381190000000    -0.390175   
O197     O      0.459200000000     0.532140000000     0.383270000000    -0.396507   
O198     O      0.052420000000     0.532200000000     0.380970000000    -0.393864   
O199     O      0.003630000000     0.532090000000     0.335400000000    -0.395712   
O200     O      0.006810000000     0.532230000000     0.428870000000    -0.395399   
O201     O      0.008820000000     0.730340000000     0.335420000000    -0.395222   
O202     O      0.005510000000     0.730180000000     0.428870000000    -0.39548    
O203     O      0.459980000000     0.729320000000     0.380880000000    -0.393809   
O204     O      0.053170000000     0.731170000000     0.383400000000    -0.396373   
O205     O      0.052300000000     0.782330000000     0.380750000000    -0.393318   
O206     O      0.459100000000     0.780480000000     0.383610000000    -0.396866   
O207     O      0.006940000000     0.781400000000     0.428900000000    -0.395596   
O208     O      0.003270000000     0.781390000000     0.335470000000    -0.395747   
O209     O      0.258320000000     0.980940000000     0.335370000000    -0.390592   
O210     O      0.255020000000     0.981020000000     0.428810000000    -0.391066   
O211     O      0.209490000000     0.980990000000     0.380890000000    -0.390052   
O212     O      0.302700000000     0.980970000000     0.383270000000    -0.392414   
O213     O      0.302450000000     0.532160000000     0.381000000000    -0.394431   
O214     O      0.209220000000     0.532190000000     0.383050000000    -0.396318   
O215     O      0.256740000000     0.532230000000     0.428770000000    -0.395228   
O216     O      0.253800000000     0.532090000000     0.335300000000    -0.394785   
O217     O      0.253490000000     0.730340000000     0.335320000000    -0.394754   
O218     O      0.256680000000     0.730180000000     0.428780000000    -0.395095   
O219     O      0.209100000000     0.731170000000     0.383270000000    -0.396983   
O220     O      0.302300000000     0.729320000000     0.380830000000    -0.393621   
O221     O      0.303180000000     0.780490000000     0.383440000000    -0.396893   
O222     O      0.209980000000     0.782340000000     0.380740000000    -0.393618   
O223     O      0.255470000000     0.781410000000     0.428810000000    -0.395189   
O224     O      0.258930000000     0.781400000000     0.335370000000    -0.394757   
O225     O      0.003330000000     0.980990000000     0.679490000000    -0.391707   
O226     O      0.006840000000     0.981010000000     0.586070000000    -0.391248   
O227     O      0.052310000000     0.980060000000     0.634160000000    -0.38882    
O228     O      0.459110000000     0.981920000000     0.631410000000    -0.392784   
O229     O      0.459990000000     0.533080000000     0.634030000000    -0.393653   
O230     O      0.053190000000     0.531230000000     0.631650000000    -0.396507   
O231     O      0.005630000000     0.532240000000     0.586110000000    -0.395362   
O232     O      0.008780000000     0.532040000000     0.679570000000    -0.395283   
O233     O      0.008420000000     0.730250000000     0.679560000000    -0.395095   
O234     O      0.005480000000     0.730170000000     0.586100000000    -0.395632   
O235     O      0.053000000000     0.730190000000     0.631820000000    -0.395841   
O236     O      0.459780000000     0.730210000000     0.633860000000    -0.394333   
O237     O      0.459520000000     0.781410000000     0.631620000000    -0.396488   
O238     O      0.052730000000     0.781390000000     0.634000000000    -0.393724   
O239     O      0.007190000000     0.781380000000     0.586080000000    -0.395622   
O240     O      0.003900000000     0.781410000000     0.679520000000    -0.395809   
O241     O      0.253520000000     0.532030000000     0.679470000000    -0.394646   
O242     O      0.256740000000     0.532240000000     0.586010000000    -0.395107   
O243     O      0.209120000000     0.531230000000     0.631530000000    -0.396898   
O244     O      0.302320000000     0.533080000000     0.633970000000    -0.393764   
O245     O      0.303190000000     0.981920000000     0.631210000000    -0.392712   
O246     O      0.210000000000     0.980060000000     0.634150000000    -0.389402   
O247     O      0.255310000000     0.981020000000     0.585970000000    -0.391105   
O248     O      0.259070000000     0.980990000000     0.679390000000    -0.390547   
O249     O      0.254100000000     0.781410000000     0.679430000000    -0.394674   
O250     O      0.256930000000     0.781390000000     0.585980000000    -0.39531    
O251     O      0.209490000000     0.781370000000     0.631740000000    -0.396391   
O252     O      0.302720000000     0.781430000000     0.633700000000    -0.394541   
O253     O      0.303020000000     0.730230000000     0.631590000000    -0.396404   
O254     O      0.209800000000     0.730170000000     0.633900000000    -0.394342   
O255     O      0.255410000000     0.730170000000     0.586000000000    -0.395288   
O256     O      0.258610000000     0.730250000000     0.679460000000    -0.39461    
O257     O      0.531260000000     0.003940000000     0.179550000000    -0.396015   
O258     O      0.531240000000     0.006820000000     0.086100000000    -0.395634   
O259     O      0.531290000000     0.052590000000     0.133840000000    -0.39392    
O260     O      0.531230000000     0.459360000000     0.131820000000    -0.396384   
O261     O      0.980030000000     0.459670000000     0.133990000000    -0.390091   
O262     O      0.980090000000     0.052890000000     0.131720000000    -0.391785   
O263     O      0.980020000000     0.505300000000     0.086110000000    -0.391007   
O264     O      0.980110000000     0.508450000000     0.179570000000    -0.39047    
O265     O      0.531230000000     0.257040000000     0.086080000000    -0.395434   
O266     O      0.531300000000     0.253800000000     0.179510000000    -0.39487    
O267     O      0.531270000000     0.209380000000     0.131640000000    -0.396448   
O268     O      0.531260000000     0.302600000000     0.133970000000    -0.394378   
O269     O      0.980060000000     0.302870000000     0.131800000000    -0.392252   
O270     O      0.980080000000     0.209650000000     0.133900000000    -0.390203   
O271     O      0.980150000000     0.258320000000     0.179580000000    -0.390459   
O272     O      0.980020000000     0.255320000000     0.086110000000    -0.390981   
O273     O      0.782010000000     0.503430000000     0.179480000000    -0.39466    
O274     O      0.782280000000     0.506750000000     0.086020000000    -0.395052   
O275     O      0.783090000000     0.052280000000     0.134030000000    -0.393135   
O276     O      0.781240000000     0.459080000000     0.131490000000    -0.396879   
O277     O      0.730070000000     0.459960000000     0.134080000000    -0.393689   
O278     O      0.731930000000     0.053150000000     0.131240000000    -0.396319   
O279     O      0.731060000000     0.505320000000     0.085950000000    -0.395373   
O280     O      0.730960000000     0.508980000000     0.179370000000    -0.394721   
O281     O      0.782280000000     0.255560000000     0.086010000000    -0.395093   
O282     O      0.782050000000     0.258780000000     0.179460000000    -0.394693   
O283     O      0.783100000000     0.209960000000     0.133970000000    -0.39367    
O284     O      0.781250000000     0.303160000000     0.131510000000    -0.396954   
O285     O      0.730080000000     0.302270000000     0.134000000000    -0.393698   
O286     O      0.731930000000     0.209070000000     0.131320000000    -0.396958   
O287     O      0.730990000000     0.253330000000     0.179380000000    -0.394677   
O288     O      0.731050000000     0.256770000000     0.085940000000    -0.395304   
O289     O      0.531280000000     0.505430000000     0.928920000000    -0.395253   
O290     O      0.531290000000     0.508910000000     0.835490000000    -0.394841   
O291     O      0.530360000000     0.053140000000     0.883560000000    -0.396406   
O292     O      0.532220000000     0.459950000000     0.880850000000    -0.393804   
O293     O      0.981050000000     0.459060000000     0.883360000000    -0.392896   
O294     O      0.979200000000     0.052260000000     0.880940000000    -0.388991   
O295     O      0.980230000000     0.503470000000     0.835430000000    -0.390377   
O296     O      0.980050000000     0.506630000000     0.928890000000    -0.391024   
O297     O      0.531260000000     0.256880000000     0.928910000000    -0.395345   
O298     O      0.531300000000     0.253250000000     0.835490000000    -0.394797   
O299     O      0.532220000000     0.302260000000     0.880790000000    -0.393686   
O300     O      0.530360000000     0.209070000000     0.883610000000    -0.396912   
O301     O      0.979200000000     0.209940000000     0.880860000000    -0.389405   
O302     O      0.981050000000     0.303130000000     0.883410000000    -0.392663   
O303     O      0.980260000000     0.258800000000     0.835410000000    -0.390555   
O304     O      0.980040000000     0.255450000000     0.928870000000    -0.390796   
O305     O      0.731150000000     0.505110000000     0.928790000000    -0.395284   
O306     O      0.731100000000     0.508400000000     0.835370000000    -0.394879   
O307     O      0.731140000000     0.459570000000     0.880880000000    -0.394518   
O308     O      0.731120000000     0.052790000000     0.883250000000    -0.396017   
O309     O      0.782310000000     0.052530000000     0.880990000000    -0.393907   
O310     O      0.782330000000     0.459310000000     0.883060000000    -0.396551   
O311     O      0.782250000000     0.503880000000     0.835300000000    -0.394576   
O312     O      0.782370000000     0.506830000000     0.928770000000    -0.39514    
O313     O      0.782360000000     0.256860000000     0.928770000000    -0.395073   
O314     O      0.782260000000     0.253740000000     0.835300000000    -0.394653   
O315     O      0.782350000000     0.302500000000     0.880900000000    -0.394501   
O316     O      0.782290000000     0.209290000000     0.883140000000    -0.396375   
O317     O      0.731090000000     0.209590000000     0.881040000000    -0.394404   
O318     O      0.731150000000     0.302810000000     0.883070000000    -0.396426   
O319     O      0.731100000000     0.258250000000     0.835340000000    -0.394783   
O320     O      0.731140000000     0.255340000000     0.928780000000    -0.395482   
O321     O      0.505290000000     0.481010000000     0.428910000000    -0.395474   
O322     O      0.508140000000     0.480930000000     0.335470000000    -0.394785   
O323     O      0.552730000000     0.481000000000     0.383170000000    -0.396391   
O324     O      0.959510000000     0.480940000000     0.381190000000    -0.390893   
O325     O      0.959200000000     0.032140000000     0.383270000000    -0.391661   
O326     O      0.552420000000     0.032200000000     0.380970000000    -0.393217   
O327     O      0.503630000000     0.032080000000     0.335400000000    -0.393539   
O328     O      0.506810000000     0.032230000000     0.428870000000    -0.393909   
O329     O      0.508820000000     0.230340000000     0.335420000000    -0.394754   
O330     O      0.505510000000     0.230180000000     0.428870000000    -0.395164   
O331     O      0.959970000000     0.229320000000     0.380880000000    -0.390102   
O332     O      0.553170000000     0.231170000000     0.383400000000    -0.396823   
O333     O      0.552300000000     0.282340000000     0.380750000000    -0.393695   
O334     O      0.959110000000     0.280480000000     0.383610000000    -0.393376   
O335     O      0.506940000000     0.281400000000     0.428900000000    -0.395337   
O336     O      0.503270000000     0.281390000000     0.335470000000    -0.394673   
O337     O      0.758320000000     0.480940000000     0.335370000000    -0.394823   
O338     O      0.755020000000     0.481020000000     0.428810000000    -0.395281   
O339     O      0.709490000000     0.480990000000     0.380890000000    -0.394483   
O340     O      0.802710000000     0.480970000000     0.383270000000    -0.396393   
O341     O      0.802450000000     0.032160000000     0.381000000000    -0.39319    
O342     O      0.709220000000     0.032190000000     0.383050000000    -0.395151   
O343     O      0.756740000000     0.032240000000     0.428770000000    -0.393804   
O344     O      0.753800000000     0.032090000000     0.335300000000    -0.393509   
O345     O      0.753490000000     0.230340000000     0.335320000000    -0.394738   
O346     O      0.756680000000     0.230180000000     0.428780000000    -0.395056   
O347     O      0.709100000000     0.231170000000     0.383270000000    -0.396995   
O348     O      0.802300000000     0.229320000000     0.380830000000    -0.393544   
O349     O      0.803180000000     0.280490000000     0.383440000000    -0.396835   
O350     O      0.709980000000     0.282340000000     0.380740000000    -0.393656   
O351     O      0.755470000000     0.281410000000     0.428810000000    -0.395172   
O352     O      0.758930000000     0.281400000000     0.335370000000    -0.394779   
O353     O      0.503330000000     0.480990000000     0.679490000000    -0.394935   
O354     O      0.506840000000     0.481010000000     0.586070000000    -0.395311   
O355     O      0.552310000000     0.480060000000     0.634160000000    -0.393633   
O356     O      0.959110000000     0.481920000000     0.631410000000    -0.393536   
O357     O      0.959990000000     0.033080000000     0.634030000000    -0.389071   
O358     O      0.553200000000     0.031240000000     0.631650000000    -0.395534   
O359     O      0.505630000000     0.032240000000     0.586110000000    -0.393863   
O360     O      0.508770000000     0.032050000000     0.679570000000    -0.393413   
O361     O      0.508420000000     0.230250000000     0.679560000000    -0.394648   
O362     O      0.505480000000     0.230170000000     0.586100000000    -0.395321   
O363     O      0.553000000000     0.230190000000     0.631820000000    -0.396442   
O364     O      0.959770000000     0.230220000000     0.633860000000    -0.390896   
O365     O      0.959520000000     0.281410000000     0.631620000000    -0.393053   
O366     O      0.552730000000     0.281390000000     0.634000000000    -0.394297   
O367     O      0.507190000000     0.281380000000     0.586080000000    -0.395381   
O368     O      0.503900000000     0.281410000000     0.679520000000    -0.394741   
O369     O      0.753510000000     0.032030000000     0.679470000000    -0.393399   
O370     O      0.756740000000     0.032240000000     0.586010000000    -0.393818   
O371     O      0.709120000000     0.031230000000     0.631530000000    -0.395534   
O372     O      0.802320000000     0.033080000000     0.633970000000    -0.39256    
O373     O      0.803190000000     0.481920000000     0.631210000000    -0.396808   
O374     O      0.710000000000     0.480060000000     0.634150000000    -0.393659   
O375     O      0.755310000000     0.481020000000     0.585970000000    -0.39527    
O376     O      0.759070000000     0.480980000000     0.679390000000    -0.39462    
O377     O      0.754100000000     0.281410000000     0.679430000000    -0.394688   
O378     O      0.756930000000     0.281390000000     0.585980000000    -0.395286   
O379     O      0.709490000000     0.281370000000     0.631740000000    -0.396427   
O380     O      0.802720000000     0.281440000000     0.633700000000    -0.394386   
O381     O      0.803020000000     0.230240000000     0.631590000000    -0.396415   
O382     O      0.709800000000     0.230170000000     0.633900000000    -0.394364   
O383     O      0.755410000000     0.230170000000     0.586000000000    -0.395253   
O384     O      0.758620000000     0.230250000000     0.679460000000    -0.394581   
O385     O      0.531260000000     0.503940000000     0.179550000000    -0.394939   
O386     O      0.531240000000     0.506820000000     0.086100000000    -0.39538    
O387     O      0.531290000000     0.552590000000     0.133840000000    -0.394474   
O388     O      0.531230000000     0.959360000000     0.131820000000    -0.392842   
O389     O      0.980030000000     0.959670000000     0.133990000000    -0.386562   
O390     O      0.980090000000     0.552890000000     0.131720000000    -0.392359   
O391     O      0.980020000000     0.005300000000     0.086110000000    -0.391333   
O392     O      0.980110000000     0.008450000000     0.179570000000    -0.390962   
O393     O      0.531230000000     0.757040000000     0.086080000000    -0.395412   
O394     O      0.531300000000     0.753800000000     0.179510000000    -0.394869   
O395     O      0.531270000000     0.709390000000     0.131640000000    -0.39649    
O396     O      0.531260000000     0.802600000000     0.133970000000    -0.394327   
O397     O      0.980060000000     0.802870000000     0.131800000000    -0.392184   
O398     O      0.980080000000     0.709650000000     0.133900000000    -0.390188   
O399     O      0.980150000000     0.758320000000     0.179580000000    -0.390451   
O400     O      0.980020000000     0.755320000000     0.086110000000    -0.390952   
O401     O      0.782010000000     0.003430000000     0.179480000000    -0.395747   
O402     O      0.782280000000     0.006750000000     0.086020000000    -0.395304   
O403     O      0.783090000000     0.552280000000     0.134030000000    -0.393683   
O404     O      0.781240000000     0.959080000000     0.131490000000    -0.393341   
O405     O      0.730070000000     0.959960000000     0.134080000000    -0.39014    
O406     O      0.731930000000     0.553150000000     0.131240000000    -0.396905   
O407     O      0.731060000000     0.005320000000     0.085950000000    -0.395695   
O408     O      0.730960000000     0.008980000000     0.179370000000    -0.395191   
O409     O      0.782280000000     0.755560000000     0.086010000000    -0.395064   
O410     O      0.782050000000     0.758780000000     0.179460000000    -0.394683   
O411     O      0.783100000000     0.709960000000     0.133970000000    -0.393714   
O412     O      0.781250000000     0.803160000000     0.131510000000    -0.396883   
O413     O      0.730080000000     0.802270000000     0.134000000000    -0.393627   
O414     O      0.731930000000     0.709070000000     0.131320000000    -0.397002   
O415     O      0.730990000000     0.753330000000     0.179380000000    -0.394665   
O416     O      0.731050000000     0.756770000000     0.085940000000    -0.39527    
O417     O      0.531280000000     0.005430000000     0.928920000000    -0.395574   
O418     O      0.531290000000     0.008910000000     0.835490000000    -0.395282   
O419     O      0.530360000000     0.553140000000     0.883560000000    -0.396996   
O420     O      0.532220000000     0.959950000000     0.880850000000    -0.390238   
O421     O      0.981050000000     0.959060000000     0.883360000000    -0.389373   
O422     O      0.979200000000     0.552260000000     0.880940000000    -0.389514   
O423     O      0.980230000000     0.003460000000     0.835430000000    -0.391475   
O424     O      0.980050000000     0.006630000000     0.928890000000    -0.391283   
O425     O      0.531260000000     0.756880000000     0.928910000000    -0.395312   
O426     O      0.531300000000     0.753250000000     0.835490000000    -0.394783   
O427     O      0.532220000000     0.802260000000     0.880790000000    -0.393611   
O428     O      0.530360000000     0.709070000000     0.883610000000    -0.397012   
O429     O      0.979200000000     0.709940000000     0.880860000000    -0.389501   
O430     O      0.981050000000     0.803130000000     0.883410000000    -0.392599   
O431     O      0.980260000000     0.758800000000     0.835410000000    -0.390548   
O432     O      0.980040000000     0.755450000000     0.928870000000    -0.39077    
O433     O      0.731150000000     0.005120000000     0.928790000000    -0.395611   
O434     O      0.731100000000     0.008400000000     0.835370000000    -0.395338   
O435     O      0.731140000000     0.959570000000     0.880880000000    -0.390969   
O436     O      0.731120000000     0.552790000000     0.883250000000    -0.396612   
O437     O      0.782310000000     0.552530000000     0.880990000000    -0.394454   
O438     O      0.782330000000     0.959310000000     0.883060000000    -0.393022   
O439     O      0.782250000000     0.003880000000     0.835300000000    -0.395681   
O440     O      0.782370000000     0.006830000000     0.928770000000    -0.395397   
O441     O      0.782360000000     0.756860000000     0.928770000000    -0.395042   
O442     O      0.782260000000     0.753740000000     0.835300000000    -0.394641   
O443     O      0.782350000000     0.802500000000     0.880900000000    -0.394437   
O444     O      0.782290000000     0.709290000000     0.883140000000    -0.396384   
O445     O      0.731090000000     0.709590000000     0.881040000000    -0.394418   
O446     O      0.731150000000     0.802810000000     0.883070000000    -0.396353   
O447     O      0.731100000000     0.758250000000     0.835340000000    -0.394772   
O448     O      0.731140000000     0.755340000000     0.928780000000    -0.395449   
O449     O      0.505290000000     0.981010000000     0.428910000000    -0.391278   
O450     O      0.508140000000     0.980930000000     0.335470000000    -0.39059    
O451     O      0.552730000000     0.981000000000     0.383170000000    -0.392227   
O452     O      0.959510000000     0.980940000000     0.381190000000    -0.386668   
O453     O      0.959200000000     0.532140000000     0.383270000000    -0.392926   
O454     O      0.552420000000     0.532200000000     0.380970000000    -0.394418   
O455     O      0.503630000000     0.532090000000     0.335400000000    -0.394638   
O456     O      0.506810000000     0.532230000000     0.428870000000    -0.395147   
O457     O      0.508820000000     0.730340000000     0.335420000000    -0.394758   
O458     O      0.505510000000     0.730180000000     0.428870000000    -0.395172   
O459     O      0.959970000000     0.729320000000     0.380880000000    -0.390113   
O460     O      0.553170000000     0.731170000000     0.383400000000    -0.396883   
O461     O      0.552300000000     0.782330000000     0.380750000000    -0.393831   
O462     O      0.959110000000     0.780480000000     0.383610000000    -0.393369   
O463     O      0.506940000000     0.781400000000     0.428900000000    -0.395332   
O464     O      0.503270000000     0.781390000000     0.335470000000    -0.394643   
O465     O      0.758320000000     0.980940000000     0.335370000000    -0.390574   
O466     O      0.755020000000     0.981020000000     0.428810000000    -0.391025   
O467     O      0.709490000000     0.980990000000     0.380890000000    -0.390044   
O468     O      0.802710000000     0.980970000000     0.383270000000    -0.392323   
O469     O      0.802450000000     0.532160000000     0.381000000000    -0.394377   
O470     O      0.709220000000     0.532190000000     0.383050000000    -0.396346   
O471     O      0.756740000000     0.532230000000     0.428770000000    -0.395196   
O472     O      0.753800000000     0.532090000000     0.335300000000    -0.394773   
O473     O      0.753490000000     0.730340000000     0.335320000000    -0.394741   
O474     O      0.756680000000     0.730180000000     0.428780000000    -0.395061   
O475     O      0.709100000000     0.731170000000     0.383270000000    -0.396999   
O476     O      0.802300000000     0.729320000000     0.380830000000    -0.393548   
O477     O      0.803180000000     0.780490000000     0.383440000000    -0.39682    
O478     O      0.709980000000     0.782340000000     0.380740000000    -0.393633   
O479     O      0.755470000000     0.781410000000     0.428810000000    -0.395159   
O480     O      0.758930000000     0.781400000000     0.335370000000    -0.394746   
O481     O      0.503330000000     0.980990000000     0.679490000000    -0.390596   
O482     O      0.506840000000     0.981010000000     0.586070000000    -0.390989   
O483     O      0.552310000000     0.980060000000     0.634160000000    -0.389383   
O484     O      0.959110000000     0.981920000000     0.631410000000    -0.38935    
O485     O      0.959990000000     0.533080000000     0.634030000000    -0.390113   
O486     O      0.553200000000     0.531230000000     0.631650000000    -0.397081   
O487     O      0.505630000000     0.532240000000     0.586110000000    -0.395032   
O488     O      0.508770000000     0.532040000000     0.679570000000    -0.394843   
O489     O      0.508420000000     0.730250000000     0.679560000000    -0.394647   
O490     O      0.505480000000     0.730170000000     0.586100000000    -0.395323   
O491     O      0.553000000000     0.730190000000     0.631820000000    -0.396442   
O492     O      0.959770000000     0.730220000000     0.633860000000    -0.390899   
O493     O      0.959520000000     0.781410000000     0.631620000000    -0.393042   
O494     O      0.552730000000     0.781390000000     0.634000000000    -0.394266   
O495     O      0.507190000000     0.781380000000     0.586080000000    -0.395365   
O496     O      0.503900000000     0.781410000000     0.679520000000    -0.394705   
O497     O      0.753510000000     0.532030000000     0.679470000000    -0.394595   
O498     O      0.756740000000     0.532240000000     0.586010000000    -0.395056   
O499     O      0.709120000000     0.531230000000     0.631530000000    -0.396904   
O500     O      0.802320000000     0.533080000000     0.633970000000    -0.393669   
O501     O      0.803190000000     0.981920000000     0.631210000000    -0.392554   
O502     O      0.710000000000     0.980060000000     0.634150000000    -0.389502   
O503     O      0.755310000000     0.981020000000     0.585970000000    -0.39108    
O504     O      0.759070000000     0.980990000000     0.679390000000    -0.390526   
O505     O      0.754100000000     0.781410000000     0.679430000000    -0.394652   
O506     O      0.756930000000     0.781390000000     0.585980000000    -0.395272   
O507     O      0.709490000000     0.781370000000     0.631740000000    -0.396401   
O508     O      0.802720000000     0.781440000000     0.633700000000    -0.394312   
O509     O      0.803020000000     0.730230000000     0.631590000000    -0.396258   
O510     O      0.709800000000     0.730170000000     0.633900000000    -0.394365   
O511     O      0.755410000000     0.730170000000     0.586000000000    -0.395255   
O512     O      0.758620000000     0.730250000000     0.679460000000    -0.39458    


