data_structure

_audit_creation_method RASPA-1.0
_audit_creation_date 2023-6-4
_audit_author_name 'Poobodin Mano'

_cell_length_a    29.1466
_cell_length_b    29.5266
_cell_length_c    21.2293
_cell_angle_alpha 89.9989
_cell_angle_beta  89.9989
_cell_angle_gamma 96.7775
_cell_volume      18142.3

_symmetry_cell_setting          triclinic
_symmetry_space_group_name_Hall 'P 1'
_symmetry_space_group_name_H-M  'P 1'
_symmetry_Int_Tables_number     1

_symmetry_equiv_pos_as_xyz 'x,y,z'

loop_
_atom_site_label
_atom_site_type_symbol
_atom_site_fract_x
_atom_site_fract_y
_atom_site_fract_z
_atom_site_charge
C1       C      0.053550000000     0.422880000000     0.007780000000     0.391623   
C2       C      0.424440000000     0.042350000000     0.005490000000     0.400546   
C3       C      0.055690000000     0.050050000000     0.005820000000     0.434432   
C4       C      0.425280000000     0.413430000000     0.008440000000     0.439706   
C5       C      0.052330000000     0.423870000000     0.506530000000     0.388344   
C6       C      0.423600000000     0.043730000000     0.512980000000     0.394194   
C7       C      0.051200000000     0.053560000000     0.513860000000     0.440266   
C8       C      0.423920000000     0.415190000000     0.505670000000     0.428911   
C9       C      0.237420000000     0.237020000000     0.884920000000     0.475573   
C10      C      0.239540000000     0.230010000000     0.124410000000     0.467904   
C11      C      0.297260000000     0.171870000000     0.002080000000     0.439657   
C12      C      0.181810000000     0.294400000000     0.007700000000     0.451215   
C13      C      0.239780000000     0.223620000000     0.384630000000     0.488813   
C14      C      0.235940000000     0.236550000000     0.623480000000     0.477857   
C15      C      0.296150000000     0.173020000000     0.512350000000     0.456783   
C16      C      0.177540000000     0.292360000000     0.499500000000     0.453964   
C17      C      0.214620000000     0.201880000000     0.721830000000     0.039386   
C18      C      0.256480000000     0.275100000000     0.720020000000     0.015517   
C19      C      0.214800000000     0.202540000000     0.787420000000     0.0379971  
C20      C      0.255780000000     0.276640000000     0.786260000000     0.135915   
C21      C      0.200340000000     0.213820000000     0.221590000000     0.0424879  
C22      C      0.281040000000     0.233740000000     0.221100000000     0.016883   
C23      C      0.200880000000     0.211110000000     0.287190000000     0.0509656  
C24      C      0.282280000000     0.228520000000     0.286900000000     0.148865   
C25      C      0.087190000000     0.361600000000     0.553010000000     0.0310791  
C26      C      0.111030000000     0.387490000000     0.452470000000     0.00932487 
C27      C      0.117050000000     0.327170000000     0.549350000000     0.042147   
C28      C      0.142730000000     0.354270000000     0.449520000000     0.138852   
C29      C      0.378820000000     0.354180000000     0.554920000000     0.0478371  
C30      C      0.368070000000     0.370270000000     0.446880000000     0.0152255  
C31      C      0.343570000000     0.319000000000     0.551410000000     0.0310352  
C32      C      0.331050000000     0.336630000000     0.444110000000     0.143301   
C33      C      0.358370000000     0.075500000000     0.468810000000     0.037216   
C34      C      0.392960000000     0.108040000000     0.560490000000     0.0148673  
C35      C      0.325090000000     0.106690000000     0.471060000000     0.0458415  
C36      C      0.361940000000     0.142030000000     0.560180000000     0.137389   
C37      C      0.156480000000     0.122140000000     0.552360000000     0.0324053  
C38      C      0.119690000000     0.158260000000     0.469910000000     0.00703762 
C39      C      0.119010000000     0.089480000000     0.556990000000     0.04616    
C40      C      0.082220000000     0.125050000000     0.472820000000     0.145406   
C41      C      0.086600000000     0.359890000000     0.961000000000     0.0341757  
C42      C      0.117900000000     0.391230000000     0.055340000000     0.0115931  
C43      C      0.117630000000     0.326510000000     0.962920000000     0.046772   
C44      C      0.152350000000     0.360810000000     0.053940000000     0.142066   
C45      C      0.327960000000     0.336340000000     0.059190000000     0.0397433  
C46      C      0.351600000000     0.312620000000     0.958940000000     0.0149462  
C47      C      0.364510000000     0.370340000000     0.060190000000     0.053973   
C48      C      0.388360000000     0.346780000000     0.958950000000     0.149096   
C49      C      0.367000000000     0.143870000000     0.965910000000     0.0371982  
C50      C      0.320580000000     0.101110000000     0.040070000000     0.0141529  
C51      C      0.397440000000     0.109900000000     0.964790000000     0.0392073  
C52      C      0.352920000000     0.068450000000     0.042940000000     0.134833   
C53      C      0.128230000000     0.150290000000     0.955790000000     0.0343285  
C54      C      0.155150000000     0.126920000000     0.054480000000     0.0064325  
C55      C      0.094880000000     0.113180000000     0.955310000000     0.0458655  
C56      C      0.121430000000     0.089890000000     0.055280000000     0.144164   
C57      C      0.053550000000     0.922880000000     0.007780000000     0.391554   
C58      C      0.424440000000     0.542340000000     0.005490000000     0.400586   
C59      C      0.055690000000     0.550060000000     0.005820000000     0.434485   
C60      C      0.425280000000     0.913430000000     0.008440000000     0.439656   
C61      C      0.052330000000     0.923870000000     0.506530000000     0.388295   
C62      C      0.423600000000     0.543740000000     0.512980000000     0.394193   
C63      C      0.051200000000     0.553560000000     0.513860000000     0.440359   
C64      C      0.423920000000     0.915200000000     0.505670000000     0.428858   
C65      C      0.237420000000     0.737020000000     0.884920000000     0.475575   
C66      C      0.239540000000     0.730010000000     0.124410000000     0.467907   
C67      C      0.297260000000     0.671870000000     0.002080000000     0.439502   
C68      C      0.181820000000     0.794410000000     0.007700000000     0.451212   
C69      C      0.239780000000     0.723620000000     0.384630000000     0.488809   
C70      C      0.235940000000     0.736550000000     0.623480000000     0.477858   
C71      C      0.296150000000     0.673020000000     0.512350000000     0.456781   
C72      C      0.177540000000     0.792360000000     0.499500000000     0.453959   
C73      C      0.214620000000     0.701880000000     0.721830000000     0.0393811  
C74      C      0.256480000000     0.775100000000     0.720020000000     0.0155234  
C75      C      0.214800000000     0.702540000000     0.787420000000     0.0379903  
C76      C      0.255780000000     0.776640000000     0.786260000000     0.135887   
C77      C      0.200340000000     0.713820000000     0.221590000000     0.0424843  
C78      C      0.281040000000     0.733740000000     0.221100000000     0.0168804  
C79      C      0.200880000000     0.711110000000     0.287190000000     0.0509579  
C80      C      0.282280000000     0.728520000000     0.286900000000     0.148859   
C81      C      0.087190000000     0.861600000000     0.553010000000     0.0310613  
C82      C      0.111030000000     0.887480000000     0.452470000000     0.00930334 
C83      C      0.117050000000     0.827170000000     0.549350000000     0.042139   
C84      C      0.142730000000     0.854270000000     0.449520000000     0.138825   
C85      C      0.378820000000     0.854180000000     0.554920000000     0.0478128  
C86      C      0.368070000000     0.870270000000     0.446880000000     0.0151863  
C87      C      0.343570000000     0.819000000000     0.551410000000     0.031028   
C88      C      0.331050000000     0.836640000000     0.444110000000     0.143272   
C89      C      0.358370000000     0.575500000000     0.468810000000     0.0372011  
C90      C      0.392960000000     0.608040000000     0.560490000000     0.014836   
C91      C      0.325090000000     0.606690000000     0.471060000000     0.0458108  
C92      C      0.361940000000     0.642020000000     0.560180000000     0.137359   
C93      C      0.156480000000     0.622140000000     0.552360000000     0.0323794  
C94      C      0.119690000000     0.658260000000     0.469910000000     0.00702813 
C95      C      0.119010000000     0.589480000000     0.556990000000     0.0461437  
C96      C      0.082220000000     0.625050000000     0.472820000000     0.145394   
C97      C      0.086600000000     0.859890000000     0.961000000000     0.0341545  
C98      C      0.117900000000     0.891230000000     0.055340000000     0.011574   
C99      C      0.117630000000     0.826510000000     0.962920000000     0.0467733  
C100     C      0.152350000000     0.860810000000     0.053940000000     0.142039   
C101     C      0.327960000000     0.836350000000     0.059190000000     0.0396905  
C102     C      0.351600000000     0.812620000000     0.958940000000     0.0149658  
C103     C      0.364510000000     0.870340000000     0.060190000000     0.05398    
C104     C      0.388360000000     0.846780000000     0.958950000000     0.149093   
C105     C      0.367000000000     0.643870000000     0.965910000000     0.0371831  
C106     C      0.320580000000     0.601110000000     0.040070000000     0.0141375  
C107     C      0.397440000000     0.609900000000     0.964790000000     0.0391875  
C108     C      0.352920000000     0.568450000000     0.042940000000     0.134761   
C109     C      0.128230000000     0.650290000000     0.955790000000     0.0343176  
C110     C      0.155150000000     0.626920000000     0.054480000000     0.00642904 
C111     C      0.094880000000     0.613180000000     0.955310000000     0.0458552  
C112     C      0.121430000000     0.589890000000     0.055280000000     0.144143   
C113     C      0.553550000000     0.422880000000     0.007780000000     0.391686   
C114     C      0.924440000000     0.042350000000     0.005490000000     0.40048    
C115     C      0.555690000000     0.050050000000     0.005820000000     0.434522   
C116     C      0.925280000000     0.413430000000     0.008440000000     0.439616   
C117     C      0.552330000000     0.423870000000     0.506530000000     0.388458   
C118     C      0.923600000000     0.043730000000     0.512980000000     0.394109   
C119     C      0.551200000000     0.053560000000     0.513860000000     0.440362   
C120     C      0.923920000000     0.415190000000     0.505670000000     0.428832   
C121     C      0.737420000000     0.237020000000     0.884920000000     0.475576   
C122     C      0.739540000000     0.230010000000     0.124410000000     0.467911   
C123     C      0.797260000000     0.171870000000     0.002080000000     0.439506   
C124     C      0.681810000000     0.294400000000     0.007700000000     0.451214   
C125     C      0.739780000000     0.223620000000     0.384630000000     0.488815   
C126     C      0.735940000000     0.236550000000     0.623480000000     0.477855   
C127     C      0.796150000000     0.173020000000     0.512350000000     0.45678    
C128     C      0.677540000000     0.292360000000     0.499500000000     0.453959   
C129     C      0.714620000000     0.201880000000     0.721830000000     0.0394043  
C130     C      0.756480000000     0.275100000000     0.720020000000     0.0155057  
C131     C      0.714790000000     0.202540000000     0.787420000000     0.0379322  
C132     C      0.755780000000     0.276640000000     0.786260000000     0.13593    
C133     C      0.700340000000     0.213820000000     0.221590000000     0.042486   
C134     C      0.781040000000     0.233740000000     0.221100000000     0.0168849  
C135     C      0.700880000000     0.211110000000     0.287190000000     0.0509602  
C136     C      0.782280000000     0.228520000000     0.286900000000     0.148858   
C137     C      0.587190000000     0.361600000000     0.553010000000     0.0310546  
C138     C      0.611030000000     0.387490000000     0.452470000000     0.00932702 
C139     C      0.617050000000     0.327170000000     0.549350000000     0.0421206  
C140     C      0.642740000000     0.354270000000     0.449520000000     0.138842   
C141     C      0.878820000000     0.354180000000     0.554920000000     0.0478117  
C142     C      0.868070000000     0.370270000000     0.446880000000     0.0152032  
C143     C      0.843570000000     0.319000000000     0.551410000000     0.0310247  
C144     C      0.831050000000     0.336630000000     0.444110000000     0.143293   
C145     C      0.858370000000     0.075500000000     0.468810000000     0.0371903  
C146     C      0.892960000000     0.108040000000     0.560490000000     0.0148356  
C147     C      0.825090000000     0.106690000000     0.471060000000     0.0458338  
C148     C      0.861940000000     0.142030000000     0.560180000000     0.137358   
C149     C      0.656480000000     0.122140000000     0.552360000000     0.0323952  
C150     C      0.619690000000     0.158260000000     0.469910000000     0.00703436 
C151     C      0.619010000000     0.089480000000     0.556990000000     0.0461439  
C152     C      0.582220000000     0.125050000000     0.472820000000     0.145364   
C153     C      0.586600000000     0.359890000000     0.961000000000     0.0341438  
C154     C      0.617900000000     0.391230000000     0.055340000000     0.0115528  
C155     C      0.617630000000     0.326510000000     0.962920000000     0.0467373  
C156     C      0.652340000000     0.360810000000     0.053940000000     0.14204    
C157     C      0.827950000000     0.336340000000     0.059190000000     0.0397476  
C158     C      0.851600000000     0.312620000000     0.958940000000     0.0149248  
C159     C      0.864510000000     0.370340000000     0.060190000000     0.0539572  
C160     C      0.888360000000     0.346780000000     0.958950000000     0.149069   
C161     C      0.867000000000     0.143870000000     0.965910000000     0.0371735  
C162     C      0.820580000000     0.101110000000     0.040070000000     0.0141382  
C163     C      0.897440000000     0.109900000000     0.964790000000     0.0391836  
C164     C      0.852920000000     0.068450000000     0.042940000000     0.134821   
C165     C      0.628230000000     0.150290000000     0.955790000000     0.0343039  
C166     C      0.655150000000     0.126920000000     0.054480000000     0.00642442 
C167     C      0.594880000000     0.113180000000     0.955310000000     0.0458416  
C168     C      0.621430000000     0.089890000000     0.055280000000     0.144144   
C169     C      0.553550000000     0.922880000000     0.007780000000     0.391618   
C170     C      0.924440000000     0.542340000000     0.005490000000     0.400543   
C171     C      0.555690000000     0.550060000000     0.005820000000     0.434576   
C172     C      0.925280000000     0.913430000000     0.008440000000     0.43958    
C173     C      0.552330000000     0.923870000000     0.506530000000     0.388366   
C174     C      0.923600000000     0.543740000000     0.512980000000     0.39411    
C175     C      0.551200000000     0.553560000000     0.513860000000     0.440451   
C176     C      0.923920000000     0.915200000000     0.505670000000     0.428736   
C177     C      0.737420000000     0.737020000000     0.884920000000     0.475573   
C178     C      0.739540000000     0.730010000000     0.124410000000     0.467908   
C179     C      0.797250000000     0.671870000000     0.002080000000     0.439706   
C180     C      0.681820000000     0.794410000000     0.007700000000     0.451204   
C181     C      0.739790000000     0.723620000000     0.384630000000     0.488807   
C182     C      0.735940000000     0.736550000000     0.623480000000     0.477855   
C183     C      0.796150000000     0.673020000000     0.512350000000     0.45678    
C184     C      0.677540000000     0.792360000000     0.499500000000     0.453955   
C185     C      0.714620000000     0.701880000000     0.721830000000     0.0393812  
C186     C      0.756480000000     0.775100000000     0.720020000000     0.0155093  
C187     C      0.714800000000     0.702540000000     0.787420000000     0.0379578  
C188     C      0.755780000000     0.776640000000     0.786260000000     0.135903   
C189     C      0.700340000000     0.713820000000     0.221590000000     0.0424726  
C190     C      0.781040000000     0.733740000000     0.221100000000     0.0168699  
C191     C      0.700880000000     0.711110000000     0.287190000000     0.0509679  
C192     C      0.782270000000     0.728520000000     0.286900000000     0.148868   
C193     C      0.587190000000     0.861600000000     0.553010000000     0.0310334  
C194     C      0.611030000000     0.887480000000     0.452470000000     0.00930422 
C195     C      0.617050000000     0.827170000000     0.549350000000     0.0421139  
C196     C      0.642740000000     0.854270000000     0.449520000000     0.138816   
C197     C      0.878820000000     0.854180000000     0.554920000000     0.0477817  
C198     C      0.868070000000     0.870270000000     0.446880000000     0.0151723  
C199     C      0.843570000000     0.819000000000     0.551410000000     0.0310214  
C200     C      0.831050000000     0.836640000000     0.444110000000     0.143264   
C201     C      0.858370000000     0.575500000000     0.468810000000     0.0371578  
C202     C      0.892960000000     0.608040000000     0.560490000000     0.0148017  
C203     C      0.825100000000     0.606690000000     0.471060000000     0.0458175  
C204     C      0.861940000000     0.642020000000     0.560180000000     0.137331   
C205     C      0.656480000000     0.622140000000     0.552360000000     0.0323694  
C206     C      0.619690000000     0.658260000000     0.469910000000     0.00702345 
C207     C      0.619010000000     0.589480000000     0.556990000000     0.0461273  
C208     C      0.582220000000     0.625050000000     0.472820000000     0.145353   
C209     C      0.586600000000     0.859890000000     0.961000000000     0.0341231  
C210     C      0.617900000000     0.891230000000     0.055340000000     0.0115551  
C211     C      0.617630000000     0.826510000000     0.962920000000     0.0467407  
C212     C      0.652350000000     0.860810000000     0.053940000000     0.142023   
C213     C      0.827960000000     0.836350000000     0.059190000000     0.0396879  
C214     C      0.851600000000     0.812620000000     0.958940000000     0.014974   
C215     C      0.864510000000     0.870340000000     0.060190000000     0.0539587  
C216     C      0.888360000000     0.846780000000     0.958950000000     0.149043   
C217     C      0.867000000000     0.643870000000     0.965910000000     0.0371652  
C218     C      0.820580000000     0.601110000000     0.040070000000     0.0141275  
C219     C      0.897440000000     0.609900000000     0.964790000000     0.0391591  
C220     C      0.852920000000     0.568450000000     0.042940000000     0.134749   
C221     C      0.628230000000     0.650290000000     0.955790000000     0.0342913  
C222     C      0.655150000000     0.626920000000     0.054480000000     0.00641626 
C223     C      0.594880000000     0.613180000000     0.955310000000     0.0458316  
C224     C      0.621430000000     0.589890000000     0.055280000000     0.144125   
Cu1      Cu     0.489210000000     0.982390000000     0.948770000000     0.867997   
Cu2      Cu     0.989290000000     0.483370000000     0.065020000000     0.878316   
Cu3      Cu     0.488040000000     0.985850000000     0.451960000000     0.885978   
Cu4      Cu     0.988180000000     0.482120000000     0.567970000000     0.854502   
Cu5      Cu     0.274310000000     0.264510000000     0.006260000000     1.11249    
Cu6      Cu     0.204420000000     0.201560000000     0.004120000000     1.10588    
Cu7      Cu     0.271390000000     0.265820000000     0.501350000000     1.109      
Cu8      Cu     0.203090000000     0.200090000000     0.505610000000     1.13706    
Cu9      Cu     0.489210000000     0.482390000000     0.948770000000     0.8687     
Cu10     Cu     0.989290000000     0.983370000000     0.065020000000     0.877734   
Cu11     Cu     0.488050000000     0.485850000000     0.451960000000     0.886656   
Cu12     Cu     0.988180000000     0.982120000000     0.567970000000     0.853864   
Cu13     Cu     0.274310000000     0.764510000000     0.006260000000     1.11257    
Cu14     Cu     0.204420000000     0.701560000000     0.004120000000     1.1059     
Cu15     Cu     0.271390000000     0.765820000000     0.501350000000     1.109      
Cu16     Cu     0.203090000000     0.700090000000     0.505610000000     1.13706    
Cu17     Cu     0.989210000000     0.982390000000     0.948770000000     0.86726    
Cu18     Cu     0.489290000000     0.483370000000     0.065020000000     0.879146   
Cu19     Cu     0.988040000000     0.985850000000     0.451960000000     0.885211   
Cu20     Cu     0.488180000000     0.482120000000     0.567970000000     0.855195   
Cu21     Cu     0.774310000000     0.264510000000     0.006260000000     1.11255    
Cu22     Cu     0.704420000000     0.201560000000     0.004120000000     1.10592    
Cu23     Cu     0.771390000000     0.265820000000     0.501350000000     1.109      
Cu24     Cu     0.703090000000     0.200090000000     0.505610000000     1.13706    
Cu25     Cu     0.989210000000     0.482390000000     0.948770000000     0.868033   
Cu26     Cu     0.489290000000     0.983370000000     0.065020000000     0.878492   
Cu27     Cu     0.988050000000     0.485850000000     0.451960000000     0.885873   
Cu28     Cu     0.488180000000     0.982120000000     0.567970000000     0.85468    
Cu29     Cu     0.774310000000     0.764510000000     0.006260000000     1.11259    
Cu30     Cu     0.704420000000     0.701560000000     0.004120000000     1.10585    
Cu31     Cu     0.771390000000     0.765820000000     0.501350000000     1.10902    
Cu32     Cu     0.703090000000     0.700090000000     0.505610000000     1.13703    
H1       H      0.198200000000     0.172510000000     0.811330000000     0.0433374  
H2       H      0.197640000000     0.171680000000     0.698730000000     0.0436475  
H3       H      0.272390000000     0.304800000000     0.694690000000     0.0653342  
H4       H      0.168000000000     0.203280000000     0.311070000000     0.0549277  
H5       H      0.167300000000     0.207030000000     0.197840000000     0.0545108  
H6       H      0.313480000000     0.240860000000     0.195950000000     0.0712374  
H7       H      0.118070000000     0.304210000000     0.589090000000     0.0416348  
H8       H      0.066020000000     0.362720000000     0.594840000000     0.0475547  
H9       H      0.108540000000     0.409620000000     0.412170000000     0.0717152  
H10      H      0.336060000000     0.297590000000     0.592170000000     0.0483006  
H11      H      0.397240000000     0.359960000000     0.599140000000     0.0481285  
H12      H      0.376750000000     0.390410000000     0.404840000000     0.0715773  
H13      H      0.298870000000     0.104380000000     0.434560000000     0.0507034  
H14      H      0.355660000000     0.050310000000     0.431410000000     0.0516207  
H15      H      0.418730000000     0.109050000000     0.597480000000     0.0672927  
H16      H      0.120390000000     0.062140000000     0.590880000000     0.04038    
H17      H      0.185980000000     0.120750000000     0.582870000000     0.0388648  
H18      H      0.119560000000     0.186980000000     0.438300000000     0.0625187  
H19      H      0.115430000000     0.301190000000     0.925680000000     0.0434928  
H20      H      0.061930000000     0.358410000000     0.922650000000     0.0559335  
H21      H      0.118840000000     0.415830000000     0.093380000000     0.0785439  
H22      H      0.367850000000     0.393060000000     0.100540000000     0.0580239  
H23      H      0.303990000000     0.332210000000     0.098210000000     0.0524181  
H24      H      0.347190000000     0.288250000000     0.920760000000     0.0655313  
H25      H      0.427210000000     0.115080000000     0.933840000000     0.0423498  
H26      H      0.374400000000     0.173100000000     0.935060000000     0.0472549  
H27      H      0.289940000000     0.095870000000     0.069410000000     0.0687229  
H28      H      0.071110000000     0.109310000000     0.915790000000     0.0397617  
H29      H      0.130850000000     0.174220000000     0.917040000000     0.035561   
H30      H      0.180740000000     0.131420000000     0.091550000000     0.0585193  
H31      H      0.198200000000     0.672510000000     0.811330000000     0.0433173  
H32      H      0.197640000000     0.671680000000     0.698730000000     0.0436291  
H33      H      0.272390000000     0.804800000000     0.694690000000     0.0653168  
H34      H      0.168000000000     0.703280000000     0.311070000000     0.0549205  
H35      H      0.167300000000     0.707030000000     0.197840000000     0.0545073  
H36      H      0.313480000000     0.740860000000     0.195950000000     0.0712362  
H37      H      0.118070000000     0.804210000000     0.589090000000     0.0416278  
H38      H      0.066020000000     0.862720000000     0.594840000000     0.0475367  
H39      H      0.108540000000     0.909620000000     0.412170000000     0.0716744  
H40      H      0.336060000000     0.797590000000     0.592170000000     0.0482984  
H41      H      0.397240000000     0.859960000000     0.599140000000     0.0481152  
H42      H      0.376750000000     0.890410000000     0.404840000000     0.0715472  
H43      H      0.298870000000     0.604380000000     0.434560000000     0.0506733  
H44      H      0.355660000000     0.550310000000     0.431410000000     0.0515436  
H45      H      0.418730000000     0.609050000000     0.597480000000     0.0672691  
H46      H      0.120390000000     0.562140000000     0.590880000000     0.0403036  
H47      H      0.185980000000     0.620760000000     0.582870000000     0.0388417  
H48      H      0.119560000000     0.686980000000     0.438300000000     0.0625183  
H49      H      0.115430000000     0.801190000000     0.925680000000     0.0434856  
H50      H      0.061930000000     0.858410000000     0.922650000000     0.0559247  
H51      H      0.118840000000     0.915830000000     0.093380000000     0.0784735  
H52      H      0.367850000000     0.893060000000     0.100540000000     0.0579913  
H53      H      0.303990000000     0.832210000000     0.098210000000     0.052429   
H54      H      0.347190000000     0.788250000000     0.920760000000     0.0655274  
H55      H      0.427210000000     0.615080000000     0.933840000000     0.0423358  
H56      H      0.374400000000     0.673100000000     0.935060000000     0.0472529  
H57      H      0.289940000000     0.595870000000     0.069410000000     0.0686947  
H58      H      0.071110000000     0.609310000000     0.915790000000     0.0397309  
H59      H      0.130850000000     0.674220000000     0.917040000000     0.0355531  
H60      H      0.180740000000     0.631420000000     0.091550000000     0.0585106  
H61      H      0.698200000000     0.172510000000     0.811330000000     0.0433399  
H62      H      0.697640000000     0.171680000000     0.698730000000     0.0436264  
H63      H      0.772390000000     0.304800000000     0.694690000000     0.065332   
H64      H      0.668000000000     0.203280000000     0.311070000000     0.0549104  
H65      H      0.667300000000     0.207030000000     0.197840000000     0.054485   
H66      H      0.813480000000     0.240860000000     0.195950000000     0.0712191  
H67      H      0.618070000000     0.304210000000     0.589090000000     0.0415996  
H68      H      0.566020000000     0.362720000000     0.594840000000     0.0474749  
H69      H      0.608540000000     0.409620000000     0.412170000000     0.0716765  
H70      H      0.836060000000     0.297590000000     0.592170000000     0.0482895  
H71      H      0.897240000000     0.359960000000     0.599140000000     0.0480884  
H72      H      0.876750000000     0.390410000000     0.404840000000     0.0715587  
H73      H      0.798870000000     0.104380000000     0.434560000000     0.0506985  
H74      H      0.855660000000     0.050310000000     0.431410000000     0.051611   
H75      H      0.918730000000     0.109050000000     0.597480000000     0.067229   
H76      H      0.620390000000     0.062140000000     0.590880000000     0.0403545  
H77      H      0.685980000000     0.120750000000     0.582870000000     0.0388609  
H78      H      0.619560000000     0.186980000000     0.438300000000     0.0624977  
H79      H      0.615430000000     0.301190000000     0.925680000000     0.0434535  
H80      H      0.561930000000     0.358410000000     0.922650000000     0.0558276  
H81      H      0.618840000000     0.415830000000     0.093380000000     0.0785277  
H82      H      0.867850000000     0.393060000000     0.100540000000     0.0580103  
H83      H      0.803990000000     0.332210000000     0.098210000000     0.0524122  
H84      H      0.847190000000     0.288250000000     0.920760000000     0.0655269  
H85      H      0.927210000000     0.115080000000     0.933840000000     0.0422768  
H86      H      0.874400000000     0.173100000000     0.935060000000     0.0472284  
H87      H      0.789940000000     0.095870000000     0.069410000000     0.0687224  
H88      H      0.571110000000     0.109310000000     0.915790000000     0.0396772  
H89      H      0.630850000000     0.174220000000     0.917040000000     0.0355309  
H90      H      0.680740000000     0.131420000000     0.091550000000     0.0585191  
H91      H      0.698200000000     0.672510000000     0.811330000000     0.0433097  
H92      H      0.697640000000     0.671680000000     0.698730000000     0.0436123  
H93      H      0.772390000000     0.804800000000     0.694690000000     0.0653153  
H94      H      0.668000000000     0.703280000000     0.311070000000     0.0549016  
H95      H      0.667300000000     0.707030000000     0.197840000000     0.0544841  
H96      H      0.813480000000     0.740860000000     0.195950000000     0.0712226  
H97      H      0.618070000000     0.804210000000     0.589090000000     0.0415923  
H98      H      0.566020000000     0.862720000000     0.594840000000     0.0474571  
H99      H      0.608540000000     0.909620000000     0.412170000000     0.0716363  
H100     H      0.836060000000     0.797590000000     0.592170000000     0.048286   
H101     H      0.897240000000     0.859960000000     0.599140000000     0.0480752  
H102     H      0.876750000000     0.890410000000     0.404840000000     0.0715252  
H103     H      0.798870000000     0.604380000000     0.434560000000     0.0506678  
H104     H      0.855660000000     0.550310000000     0.431410000000     0.0515372  
H105     H      0.918730000000     0.609050000000     0.597480000000     0.0672068  
H106     H      0.620390000000     0.562140000000     0.590880000000     0.0402794  
H107     H      0.685980000000     0.620760000000     0.582870000000     0.0388382  
H108     H      0.619560000000     0.686980000000     0.438300000000     0.0624967  
H109     H      0.615430000000     0.801190000000     0.925680000000     0.0434451  
H110     H      0.561930000000     0.858410000000     0.922650000000     0.055819   
H111     H      0.618840000000     0.915830000000     0.093380000000     0.0784511  
H112     H      0.867850000000     0.893060000000     0.100540000000     0.0579789  
H113     H      0.803990000000     0.832210000000     0.098210000000     0.0524241  
H114     H      0.847190000000     0.788250000000     0.920760000000     0.065515   
H115     H      0.927210000000     0.615080000000     0.933840000000     0.0422625  
H116     H      0.874400000000     0.673100000000     0.935060000000     0.0472229  
H117     H      0.789940000000     0.595870000000     0.069410000000     0.0686966  
H118     H      0.571110000000     0.609310000000     0.915790000000     0.039647   
H119     H      0.630850000000     0.674220000000     0.917040000000     0.0355246  
H120     H      0.680740000000     0.631420000000     0.091550000000     0.0585088  
N1       N      0.235840000000     0.237900000000     0.688110000000    -0.180247   
N2       N      0.235940000000     0.239310000000     0.820090000000    -0.194582   
N3       N      0.273170000000     0.318770000000     0.816310000000    -0.0279499  
N4       N      0.240200000000     0.226450000000     0.188820000000    -0.177229   
N5       N      0.241380000000     0.220360000000     0.320080000000    -0.192955   
N6       N      0.326440000000     0.226610000000     0.316750000000    -0.0249174  
N7       N      0.083600000000     0.391590000000     0.504280000000    -0.161159   
N8       N      0.145990000000     0.324260000000     0.498860000000    -0.187639   
N9       N      0.166540000000     0.349050000000     0.391170000000    -0.0271604  
N10      N      0.390420000000     0.379790000000     0.502650000000    -0.177345   
N11      N      0.319060000000     0.311850000000     0.497210000000    -0.247523   
N12      N      0.306220000000     0.329900000000     0.386060000000    -0.0361286  
N13      N      0.391800000000     0.075400000000     0.514260000000    -0.160192   
N14      N      0.327430000000     0.140880000000     0.515250000000    -0.185621   
N15      N      0.365100000000     0.174810000000     0.610550000000    -0.0281119  
N16      N      0.155890000000     0.155420000000     0.508790000000    -0.243444   
N17      N      0.083280000000     0.090060000000     0.515450000000    -0.195344   
N18      N      0.042020000000     0.130350000000     0.435360000000    -0.0288794  
N19      N      0.085790000000     0.391650000000     0.008060000000    -0.159664   
N20      N      0.151330000000     0.327340000000     0.008290000000    -0.187903   
N21      N      0.185810000000     0.363680000000     0.103600000000    -0.0306089  
N22      N      0.322140000000     0.308890000000     0.008290000000    -0.238758   
N23      N      0.393320000000     0.376510000000     0.009160000000    -0.192584   
N24      N      0.422480000000     0.347050000000     0.909910000000    -0.0286784  
N25      N      0.327990000000     0.139180000000     0.002610000000    -0.172439   
N26      N      0.391530000000     0.072910000000     0.004480000000    -0.178038   
N27      N      0.342170000000     0.029010000000     0.082400000000    -0.0273265  
N28      N      0.157560000000     0.156010000000     0.005140000000    -0.240005   
N29      N      0.090990000000     0.083890000000     0.005530000000    -0.194218   
N30      N      0.122800000000     0.056500000000     0.104400000000    -0.0283481  
N31      N      0.235840000000     0.737900000000     0.688110000000    -0.180251   
N32      N      0.235940000000     0.739310000000     0.820090000000    -0.19458    
N33      N      0.273170000000     0.818780000000     0.816310000000    -0.0279164  
N34      N      0.240200000000     0.726450000000     0.188820000000    -0.17723    
N35      N      0.241380000000     0.720360000000     0.320080000000    -0.192956   
N36      N      0.326440000000     0.726610000000     0.316750000000    -0.024911   
N37      N      0.083600000000     0.891590000000     0.504280000000    -0.161163   
N38      N      0.145990000000     0.824260000000     0.498860000000    -0.18764    
N39      N      0.166540000000     0.849040000000     0.391170000000    -0.0271393  
N40      N      0.390420000000     0.879790000000     0.502650000000    -0.177302   
N41      N      0.319060000000     0.811850000000     0.497210000000    -0.247509   
N42      N      0.306220000000     0.829890000000     0.386060000000    -0.0361203  
N43      N      0.391800000000     0.575400000000     0.514260000000    -0.16025    
N44      N      0.327430000000     0.640880000000     0.515250000000    -0.185617   
N45      N      0.365100000000     0.674810000000     0.610550000000    -0.0280863  
N46      N      0.155890000000     0.655420000000     0.508790000000    -0.243446   
N47      N      0.083280000000     0.590060000000     0.515450000000    -0.195378   
N48      N      0.042020000000     0.630350000000     0.435360000000    -0.0288815  
N49      N      0.085790000000     0.891650000000     0.008060000000    -0.159668   
N50      N      0.151330000000     0.827340000000     0.008290000000    -0.187908   
N51      N      0.185810000000     0.863680000000     0.103600000000    -0.0306075  
N52      N      0.322140000000     0.808880000000     0.008290000000    -0.238799   
N53      N      0.393320000000     0.876510000000     0.009160000000    -0.192582   
N54      N      0.422470000000     0.847050000000     0.909910000000    -0.0287047  
N55      N      0.327990000000     0.639180000000     0.002610000000    -0.172419   
N56      N      0.391530000000     0.572910000000     0.004480000000    -0.178034   
N57      N      0.342170000000     0.529000000000     0.082400000000    -0.0274904  
N58      N      0.157560000000     0.656010000000     0.005140000000    -0.240007   
N59      N      0.090990000000     0.583890000000     0.005530000000    -0.194281   
N60      N      0.122800000000     0.556500000000     0.104400000000    -0.0283405  
N61      N      0.735840000000     0.237900000000     0.688110000000    -0.180252   
N62      N      0.735950000000     0.239310000000     0.820090000000    -0.194577   
N63      N      0.773170000000     0.318770000000     0.816310000000    -0.0279571  
N64      N      0.740200000000     0.226450000000     0.188820000000    -0.177233   
N65      N      0.741380000000     0.220360000000     0.320080000000    -0.192954   
N66      N      0.826440000000     0.226610000000     0.316750000000    -0.0249126  
N67      N      0.583600000000     0.391590000000     0.504280000000    -0.161205   
N68      N      0.645990000000     0.324260000000     0.498860000000    -0.187647   
N69      N      0.666540000000     0.349050000000     0.391170000000    -0.0271727  
N70      N      0.890420000000     0.379790000000     0.502650000000    -0.177343   
N71      N      0.819060000000     0.311850000000     0.497210000000    -0.247525   
N72      N      0.806220000000     0.329900000000     0.386060000000    -0.0361268  
N73      N      0.891800000000     0.075400000000     0.514260000000    -0.160198   
N74      N      0.827430000000     0.140880000000     0.515250000000    -0.185623   
N75      N      0.865100000000     0.174810000000     0.610550000000    -0.0280974  
N76      N      0.655890000000     0.155420000000     0.508790000000    -0.243448   
N77      N      0.583280000000     0.090060000000     0.515450000000    -0.195375   
N78      N      0.542020000000     0.130350000000     0.435360000000    -0.0288697  
N79      N      0.585790000000     0.391650000000     0.008060000000    -0.159699   
N80      N      0.651330000000     0.327340000000     0.008290000000    -0.187902   
N81      N      0.685810000000     0.363680000000     0.103600000000    -0.030592   
N82      N      0.822130000000     0.308890000000     0.008290000000    -0.238807   
N83      N      0.893320000000     0.376510000000     0.009160000000    -0.192578   
N84      N      0.922480000000     0.347050000000     0.909910000000    -0.0286671  
N85      N      0.827990000000     0.139180000000     0.002610000000    -0.172416   
N86      N      0.891530000000     0.072910000000     0.004480000000    -0.17804    
N87      N      0.842170000000     0.029010000000     0.082400000000    -0.0273281  
N88      N      0.657560000000     0.156010000000     0.005140000000    -0.240011   
N89      N      0.590990000000     0.083890000000     0.005530000000    -0.194255   
N90      N      0.622800000000     0.056500000000     0.104400000000    -0.0283517  
N91      N      0.735840000000     0.737900000000     0.688110000000    -0.180253   
N92      N      0.735950000000     0.739310000000     0.820090000000    -0.194585   
N93      N      0.773170000000     0.818780000000     0.816310000000    -0.0279282  
N94      N      0.740200000000     0.726450000000     0.188820000000    -0.177231   
N95      N      0.741380000000     0.720360000000     0.320080000000    -0.19298    
N96      N      0.826440000000     0.726610000000     0.316750000000    -0.0248952  
N97      N      0.583600000000     0.891590000000     0.504280000000    -0.161204   
N98      N      0.645990000000     0.824260000000     0.498860000000    -0.187648   
N99      N      0.666540000000     0.849040000000     0.391170000000    -0.0271517  
N100     N      0.890410000000     0.879790000000     0.502650000000    -0.177265   
N101     N      0.819060000000     0.811850000000     0.497210000000    -0.247514   
N102     N      0.806220000000     0.829890000000     0.386060000000    -0.0361177  
N103     N      0.891800000000     0.575400000000     0.514260000000    -0.160254   
N104     N      0.827430000000     0.640880000000     0.515250000000    -0.185623   
N105     N      0.865100000000     0.674810000000     0.610550000000    -0.0280826  
N106     N      0.655890000000     0.655420000000     0.508790000000    -0.243447   
N107     N      0.583280000000     0.590060000000     0.515450000000    -0.195408   
N108     N      0.542020000000     0.630350000000     0.435360000000    -0.0288717  
N109     N      0.585790000000     0.891650000000     0.008060000000    -0.159707   
N110     N      0.651330000000     0.827340000000     0.008290000000    -0.18791    
N111     N      0.685810000000     0.863680000000     0.103600000000    -0.0306056  
N112     N      0.822140000000     0.808880000000     0.008290000000    -0.238805   
N113     N      0.893320000000     0.876510000000     0.009160000000    -0.192571   
N114     N      0.922480000000     0.847050000000     0.909910000000    -0.0286653  
N115     N      0.827990000000     0.639180000000     0.002610000000    -0.172415   
N116     N      0.891530000000     0.572910000000     0.004480000000    -0.178038   
N117     N      0.842170000000     0.529000000000     0.082400000000    -0.0274895  
N118     N      0.657560000000     0.656010000000     0.005140000000    -0.240006   
N119     N      0.590990000000     0.583890000000     0.005530000000    -0.194317   
N120     N      0.622800000000     0.556500000000     0.104400000000    -0.0283443  
O1       O      0.035950000000     0.434740000000     0.955360000000    -0.364097   
O2       O      0.442460000000     0.030170000000     0.953560000000    -0.372171   
O3       O      0.040450000000     0.033100000000     0.953380000000    -0.407833   
O4       O      0.438420000000     0.431340000000     0.955640000000    -0.386767   
O5       O      0.441070000000     0.430080000000     0.060730000000    -0.402468   
O6       O      0.038050000000     0.036100000000     0.058440000000    -0.391508   
O7       O      0.437780000000     0.026380000000     0.058210000000    -0.356602   
O8       O      0.040570000000     0.440080000000     0.059870000000    -0.360738   
O9       O      0.040090000000     0.443220000000     0.455550000000    -0.369452   
O10      O      0.435770000000     0.027400000000     0.459980000000    -0.365034   
O11      O      0.034150000000     0.040230000000     0.460730000000    -0.395867   
O12      O      0.441280000000     0.432010000000     0.454380000000    -0.41141    
O13      O      0.436940000000     0.431620000000     0.559390000000    -0.405935   
O14      O      0.039840000000     0.032360000000     0.565040000000    -0.408909   
O15      O      0.441860000000     0.030840000000     0.564490000000    -0.36898    
O16      O      0.034450000000     0.434230000000     0.559480000000    -0.373379   
O17      O      0.261240000000     0.267440000000     0.916850000000    -0.441412   
O18      O      0.275140000000     0.246920000000     0.094470000000    -0.454724   
O19      O      0.310790000000     0.213260000000     0.988050000000    -0.427821   
O20      O      0.224250000000     0.304000000000     0.023050000000    -0.41004    
O21      O      0.168160000000     0.253570000000     0.990750000000    -0.427953   
O22      O      0.254790000000     0.161680000000     0.016680000000    -0.430121   
O23      O      0.203590000000     0.215610000000     0.093500000000    -0.454649   
O24      O      0.215450000000     0.203710000000     0.914030000000    -0.460982   
O25      O      0.273150000000     0.244690000000     0.414860000000    -0.431603   
O26      O      0.257030000000     0.268760000000     0.591370000000    -0.455228   
O27      O      0.308800000000     0.215290000000     0.523000000000    -0.407324   
O28      O      0.219710000000     0.303320000000     0.484040000000    -0.40924    
O29      O      0.165440000000     0.251530000000     0.517390000000    -0.435002   
O30      O      0.254080000000     0.161160000000     0.497040000000    -0.433239   
O31      O      0.215140000000     0.202670000000     0.594770000000    -0.467169   
O32      O      0.203980000000     0.207850000000     0.414870000000    -0.46086    
O33      O      0.245470000000     0.340280000000     0.850210000000    -0.0829283  
O34      O      0.312560000000     0.340330000000     0.798600000000    -0.0864592  
O35      O      0.363430000000     0.249680000000     0.293630000000    -0.0786861  
O36      O      0.331270000000     0.194670000000     0.357640000000    -0.0823246  
O37      O      0.179930000000     0.384610000000     0.356700000000    -0.0753435  
O38      O      0.167130000000     0.308610000000     0.366990000000    -0.0790286  
O39      O      0.329060000000     0.331140000000     0.333320000000    -0.077033   
O40      O      0.263010000000     0.336290000000     0.384180000000    -0.0649982  
O41      O      0.405360000000     0.191300000000     0.632360000000    -0.0924945  
O42      O      0.328190000000     0.182630000000     0.641210000000    -0.0931163  
O43      O      0.046680000000     0.148250000000     0.379360000000    -0.0857008  
O44      O      0.001110000000     0.124360000000     0.460740000000    -0.0839966  
O45      O      0.172140000000     0.356970000000     0.161530000000    -0.0777597  
O46      O      0.227560000000     0.382840000000     0.092740000000    -0.0739265  
O47      O      0.409810000000     0.336760000000     0.852390000000    -0.0848047  
O48      O      0.466020000000     0.349100000000     0.924530000000    -0.0943907  
O49      O      0.345860000000     0.988440000000     0.060470000000    -0.0843478  
O50      O      0.321760000000     0.032840000000     0.136330000000    -0.0832624  
O51      O      0.132140000000     0.069600000000     0.161990000000    -0.0882908  
O52      O      0.123460000000     0.013760000000     0.089910000000    -0.0849753  
O53      O      0.035950000000     0.934740000000     0.955360000000    -0.364068   
O54      O      0.442470000000     0.530170000000     0.953560000000    -0.372517   
O55      O      0.040450000000     0.533100000000     0.953380000000    -0.408125   
O56      O      0.438420000000     0.931340000000     0.955640000000    -0.386713   
O57      O      0.441070000000     0.930080000000     0.060730000000    -0.402411   
O58      O      0.038050000000     0.536100000000     0.058440000000    -0.391766   
O59      O      0.437780000000     0.526380000000     0.058210000000    -0.356944   
O60      O      0.040570000000     0.940080000000     0.059870000000    -0.360745   
O61      O      0.040090000000     0.943220000000     0.455550000000    -0.369393   
O62      O      0.435770000000     0.527400000000     0.459980000000    -0.365243   
O63      O      0.034150000000     0.540230000000     0.460730000000    -0.396224   
O64      O      0.441280000000     0.932010000000     0.454380000000    -0.411425   
O65      O      0.436940000000     0.931630000000     0.559390000000    -0.405967   
O66      O      0.039840000000     0.532360000000     0.565040000000    -0.409248   
O67      O      0.441860000000     0.530840000000     0.564490000000    -0.369217   
O68      O      0.034460000000     0.934240000000     0.559480000000    -0.373372   
O69      O      0.261240000000     0.767440000000     0.916850000000    -0.441428   
O70      O      0.275140000000     0.746920000000     0.094470000000    -0.454728   
O71      O      0.310790000000     0.713260000000     0.988050000000    -0.427783   
O72      O      0.224250000000     0.804000000000     0.023050000000    -0.410143   
O73      O      0.168160000000     0.753570000000     0.990750000000    -0.427862   
O74      O      0.254780000000     0.661680000000     0.016680000000    -0.430079   
O75      O      0.203590000000     0.715610000000     0.093500000000    -0.454649   
O76      O      0.215450000000     0.703710000000     0.914030000000    -0.460995   
O77      O      0.273150000000     0.744690000000     0.414860000000    -0.431596   
O78      O      0.257030000000     0.768760000000     0.591370000000    -0.455235   
O79      O      0.308800000000     0.715290000000     0.523000000000    -0.407318   
O80      O      0.219710000000     0.803320000000     0.484040000000    -0.409252   
O81      O      0.165440000000     0.751530000000     0.517390000000    -0.435      
O82      O      0.254080000000     0.661160000000     0.497040000000    -0.433256   
O83      O      0.215140000000     0.702670000000     0.594770000000    -0.467174   
O84      O      0.203980000000     0.707850000000     0.414870000000    -0.460864   
O85      O      0.245470000000     0.840280000000     0.850210000000    -0.0829783  
O86      O      0.312560000000     0.840330000000     0.798600000000    -0.0865037  
O87      O      0.363430000000     0.749670000000     0.293630000000    -0.0786891  
O88      O      0.331270000000     0.694670000000     0.357640000000    -0.0823331  
O89      O      0.179930000000     0.884610000000     0.356700000000    -0.0754199  
O90      O      0.167130000000     0.808620000000     0.366990000000    -0.0790259  
O91      O      0.329060000000     0.831140000000     0.333320000000    -0.0770553  
O92      O      0.263010000000     0.836290000000     0.384180000000    -0.0650288  
O93      O      0.405350000000     0.691300000000     0.632360000000    -0.0925045  
O94      O      0.328190000000     0.682630000000     0.641210000000    -0.0931375  
O95      O      0.046680000000     0.648250000000     0.379360000000    -0.0857312  
O96      O      0.001110000000     0.624360000000     0.460740000000    -0.0840172  
O97      O      0.172140000000     0.856970000000     0.161530000000    -0.0777922  
O98      O      0.227560000000     0.882840000000     0.092740000000    -0.0739904  
O99      O      0.409810000000     0.836760000000     0.852390000000    -0.0848152  
O100     O      0.466020000000     0.849100000000     0.924530000000    -0.0943851  
O101     O      0.345860000000     0.488440000000     0.060470000000    -0.0840005  
O102     O      0.321760000000     0.532840000000     0.136330000000    -0.0834084  
O103     O      0.132140000000     0.569600000000     0.161990000000    -0.0883777  
O104     O      0.123460000000     0.513760000000     0.089910000000    -0.0851767  
O105     O      0.535950000000     0.434740000000     0.955360000000    -0.364457   
O106     O      0.942460000000     0.030170000000     0.953560000000    -0.372146   
O107     O      0.540450000000     0.033100000000     0.953380000000    -0.408195   
O108     O      0.938430000000     0.431340000000     0.955640000000    -0.386724   
O109     O      0.941070000000     0.430080000000     0.060730000000    -0.402406   
O110     O      0.538050000000     0.036100000000     0.058440000000    -0.39188    
O111     O      0.937780000000     0.026380000000     0.058210000000    -0.356573   
O112     O      0.540570000000     0.440080000000     0.059870000000    -0.361085   
O113     O      0.540090000000     0.443220000000     0.455550000000    -0.369806   
O114     O      0.935770000000     0.027400000000     0.459980000000    -0.365013   
O115     O      0.534150000000     0.040230000000     0.460730000000    -0.396222   
O116     O      0.941280000000     0.432010000000     0.454380000000    -0.411362   
O117     O      0.936940000000     0.431620000000     0.559390000000    -0.40588    
O118     O      0.539840000000     0.032360000000     0.565040000000    -0.409284   
O119     O      0.941860000000     0.030840000000     0.564490000000    -0.368948   
O120     O      0.534460000000     0.434230000000     0.559480000000    -0.373726   
O121     O      0.761240000000     0.267440000000     0.916850000000    -0.441415   
O122     O      0.775140000000     0.246920000000     0.094470000000    -0.45474    
O123     O      0.810790000000     0.213260000000     0.988050000000    -0.427799   
O124     O      0.724250000000     0.304000000000     0.023050000000    -0.410039   
O125     O      0.668160000000     0.253570000000     0.990750000000    -0.427985   
O126     O      0.754780000000     0.161680000000     0.016680000000    -0.430067   
O127     O      0.703590000000     0.215610000000     0.093500000000    -0.454667   
O128     O      0.715450000000     0.203710000000     0.914030000000    -0.460991   
O129     O      0.773150000000     0.244690000000     0.414860000000    -0.431606   
O130     O      0.757030000000     0.268760000000     0.591370000000    -0.455227   
O131     O      0.808800000000     0.215290000000     0.523000000000    -0.407337   
O132     O      0.719710000000     0.303320000000     0.484040000000    -0.409237   
O133     O      0.665440000000     0.251530000000     0.517390000000    -0.43502    
O134     O      0.754080000000     0.161160000000     0.497040000000    -0.433236   
O135     O      0.715140000000     0.202670000000     0.594770000000    -0.467174   
O136     O      0.703980000000     0.207850000000     0.414870000000    -0.460862   
O137     O      0.745460000000     0.340280000000     0.850210000000    -0.0829401  
O138     O      0.812560000000     0.340330000000     0.798600000000    -0.0864701  
O139     O      0.863430000000     0.249680000000     0.293630000000    -0.0787579  
O140     O      0.831270000000     0.194670000000     0.357640000000    -0.0823654  
O141     O      0.679930000000     0.384610000000     0.356700000000    -0.0753621  
O142     O      0.667130000000     0.308610000000     0.366990000000    -0.0790536  
O143     O      0.829060000000     0.331140000000     0.333320000000    -0.0770588  
O144     O      0.763010000000     0.336290000000     0.384180000000    -0.064997   
O145     O      0.905350000000     0.191300000000     0.632360000000    -0.092596   
O146     O      0.828190000000     0.182630000000     0.641210000000    -0.0931284  
O147     O      0.546680000000     0.148250000000     0.379360000000    -0.0858299  
O148     O      0.501110000000     0.124360000000     0.460740000000    -0.0842491  
O149     O      0.672140000000     0.356970000000     0.161530000000    -0.0777963  
O150     O      0.727560000000     0.382840000000     0.092740000000    -0.0739237  
O151     O      0.909810000000     0.336760000000     0.852390000000    -0.084873   
O152     O      0.966020000000     0.349100000000     0.924530000000    -0.09458    
O153     O      0.845860000000     0.988440000000     0.060470000000    -0.0843407  
O154     O      0.821760000000     0.032840000000     0.136330000000    -0.0832827  
O155     O      0.632140000000     0.069600000000     0.161990000000    -0.0883433  
O156     O      0.623460000000     0.013760000000     0.089910000000    -0.0850043  
O157     O      0.535950000000     0.934740000000     0.955360000000    -0.364428   
O158     O      0.942470000000     0.530170000000     0.953560000000    -0.372515   
O159     O      0.540450000000     0.533100000000     0.953380000000    -0.408476   
O160     O      0.938420000000     0.931340000000     0.955640000000    -0.386644   
O161     O      0.941070000000     0.930080000000     0.060730000000    -0.402366   
O162     O      0.538050000000     0.536100000000     0.058440000000    -0.392141   
O163     O      0.937770000000     0.526380000000     0.058210000000    -0.356893   
O164     O      0.540570000000     0.940080000000     0.059870000000    -0.361082   
O165     O      0.540090000000     0.943220000000     0.455550000000    -0.369728   
O166     O      0.935770000000     0.527400000000     0.459980000000    -0.365224   
O167     O      0.534150000000     0.540230000000     0.460730000000    -0.396579   
O168     O      0.941280000000     0.932010000000     0.454380000000    -0.411376   
O169     O      0.936930000000     0.931630000000     0.559390000000    -0.40587    
O170     O      0.539840000000     0.532360000000     0.565040000000    -0.409602   
O171     O      0.941860000000     0.530840000000     0.564490000000    -0.369204   
O172     O      0.534460000000     0.934240000000     0.559480000000    -0.373723   
O173     O      0.761240000000     0.767440000000     0.916850000000    -0.441427   
O174     O      0.775140000000     0.746920000000     0.094470000000    -0.454737   
O175     O      0.810790000000     0.713260000000     0.988050000000    -0.427839   
O176     O      0.724250000000     0.804000000000     0.023050000000    -0.41014    
O177     O      0.668160000000     0.753570000000     0.990750000000    -0.427877   
O178     O      0.754790000000     0.661680000000     0.016680000000    -0.430225   
O179     O      0.703590000000     0.715610000000     0.093500000000    -0.454653   
O180     O      0.715450000000     0.703710000000     0.914030000000    -0.460996   
O181     O      0.773150000000     0.744690000000     0.414860000000    -0.431667   
O182     O      0.757030000000     0.768760000000     0.591370000000    -0.455237   
O183     O      0.808800000000     0.715290000000     0.523000000000    -0.407334   
O184     O      0.719710000000     0.803320000000     0.484040000000    -0.409249   
O185     O      0.665440000000     0.751530000000     0.517390000000    -0.435015   
O186     O      0.754080000000     0.661160000000     0.497040000000    -0.433254   
O187     O      0.715140000000     0.702670000000     0.594770000000    -0.467175   
O188     O      0.703980000000     0.707850000000     0.414870000000    -0.46079    
O189     O      0.745470000000     0.840280000000     0.850210000000    -0.0829858  
O190     O      0.812570000000     0.840330000000     0.798600000000    -0.0865131  
O191     O      0.863430000000     0.749670000000     0.293630000000    -0.0787624  
O192     O      0.831270000000     0.694670000000     0.357640000000    -0.0823808  
O193     O      0.679930000000     0.884610000000     0.356700000000    -0.075438   
O194     O      0.667130000000     0.808620000000     0.366990000000    -0.0790478  
O195     O      0.829060000000     0.831140000000     0.333320000000    -0.0770818  
O196     O      0.763010000000     0.836290000000     0.384180000000    -0.0650253  
O197     O      0.905350000000     0.691300000000     0.632360000000    -0.092609   
O198     O      0.828190000000     0.682630000000     0.641210000000    -0.0931493  
O199     O      0.546680000000     0.648250000000     0.379360000000    -0.0858602  
O200     O      0.501110000000     0.624360000000     0.460740000000    -0.0842696  
O201     O      0.672140000000     0.856970000000     0.161530000000    -0.0778254  
O202     O      0.727560000000     0.882840000000     0.092740000000    -0.0739897  
O203     O      0.909810000000     0.836760000000     0.852390000000    -0.0848914  
O204     O      0.966020000000     0.849100000000     0.924530000000    -0.0945839  
O205     O      0.845860000000     0.488440000000     0.060470000000    -0.0839909  
O206     O      0.821760000000     0.532840000000     0.136330000000    -0.0834282  
O207     O      0.632140000000     0.569600000000     0.161990000000    -0.0884303  
O208     O      0.623460000000     0.513760000000     0.089910000000    -0.0852063  


