data_structure

_audit_creation_method RASPA-1.0
_audit_creation_date 2023-6-4
_audit_author_name 'Poobodin Mano'

_cell_length_a    29.0872
_cell_length_b    29.378
_cell_length_c    21.2607
_cell_angle_alpha 89.9989
_cell_angle_beta  89.9989
_cell_angle_gamma 96.8202
_cell_volume      18039.2

_symmetry_cell_setting          triclinic
_symmetry_space_group_name_Hall 'P 1'
_symmetry_space_group_name_H-M  'P 1'
_symmetry_Int_Tables_number     1

_symmetry_equiv_pos_as_xyz 'x,y,z'

loop_
_atom_site_label
_atom_site_type_symbol
_atom_site_fract_x
_atom_site_fract_y
_atom_site_fract_z
_atom_site_charge
C1       C      0.048510000000     0.416880000000     0.004650000000     0.389105   
C2       C      0.425600000000     0.041230000000     0.004050000000     0.396241   
C3       C      0.055440000000     0.045760000000     0.993770000000     0.426466   
C4       C      0.417960000000     0.418090000000     0.016860000000     0.43267    
C5       C      0.057230000000     0.429460000000     0.501310000000     0.390916   
C6       C      0.422720000000     0.042760000000     0.497830000000     0.390078   
C7       C      0.050920000000     0.058010000000     0.498620000000     0.427435   
C8       C      0.428770000000     0.414290000000     0.501220000000     0.42759    
C9       C      0.244290000000     0.235830000000     0.880170000000     0.474105   
C10      C      0.238430000000     0.231390000000     0.119450000000     0.474467   
C11      C      0.297160000000     0.169140000000     0.000080000000     0.436281   
C12      C      0.176170000000     0.287610000000     0.002230000000     0.448918   
C13      C      0.238320000000     0.238620000000     0.380000000000     0.473837   
C14      C      0.241320000000     0.234720000000     0.619180000000     0.473172   
C15      C      0.296550000000     0.173620000000     0.497820000000     0.443098   
C16      C      0.183600000000     0.298900000000     0.502180000000     0.442901   
C17      C      0.217490000000     0.201760000000     0.717730000000     0.0331738  
C18      C      0.269730000000     0.269370000000     0.714450000000     0.022832   
C19      C      0.218840000000     0.202740000000     0.783160000000     0.0304601  
C20      C      0.271550000000     0.270770000000     0.780290000000     0.0632835  
C21      C      0.204310000000     0.208320000000     0.218230000000     0.0331806  
C22      C      0.270440000000     0.262900000000     0.214270000000     0.023196   
C23      C      0.204590000000     0.211190000000     0.283820000000     0.0310967  
C24      C      0.270510000000     0.266930000000     0.279730000000     0.0643924  
C25      C      0.113300000000     0.326300000000     0.537390000000     0.0324404  
C26      C      0.162290000000     0.371610000000     0.468240000000     0.0210652  
C27      C      0.083080000000     0.360540000000     0.539200000000     0.0288504  
C28      C      0.130140000000     0.404460000000     0.465640000000     0.0641145  
C29      C      0.322960000000     0.346500000000     0.541310000000     0.0303929  
C30      C      0.359690000000     0.307240000000     0.461840000000     0.0214091  
C31      C      0.360220000000     0.379650000000     0.543380000000     0.0383529  
C32      C      0.396800000000     0.341330000000     0.461500000000     0.0708397  
C33      C      0.367010000000     0.146370000000     0.532020000000     0.0323855  
C34      C      0.318060000000     0.101060000000     0.462860000000     0.022176   
C35      C      0.397220000000     0.112210000000     0.533870000000     0.0290649  
C36      C      0.350310000000     0.068220000000     0.460250000000     0.0623473  
C37      C      0.151180000000     0.131490000000     0.450090000000     0.0312275  
C38      C      0.124800000000     0.160210000000     0.546070000000     0.019773   
C39      C      0.113660000000     0.098540000000     0.448780000000     0.0382304  
C40      C      0.087420000000     0.126480000000     0.546420000000     0.072906   
C41      C      0.078370000000     0.351040000000     0.960000000000     0.0280747  
C42      C      0.113470000000     0.385740000000     0.050200000000     0.0176864  
C43      C      0.109260000000     0.317390000000     0.961940000000     0.0327708  
C44      C      0.146910000000     0.354280000000     0.049690000000     0.0643277  
C45      C      0.354000000000     0.309890000000     0.043470000000     0.0253094  
C46      C      0.307370000000     0.356060000000     0.985180000000     0.0240888  
C47      C      0.386700000000     0.347070000000     0.051750000000     0.0419537  
C48      C      0.340570000000     0.393840000000     0.992260000000     0.0699881  
C49      C      0.374600000000     0.149060000000     0.989550000000     0.0304547  
C50      C      0.314210000000     0.090320000000     0.010550000000     0.0208831  
C51      C      0.406560000000     0.116570000000     0.989920000000     0.0331119  
C52      C      0.346610000000     0.057350000000     0.013230000000     0.062574   
C53      C      0.155430000000     0.120620000000     0.040910000000     0.0286212  
C54      C      0.130450000000     0.147040000000     0.942870000000     0.0219229  
C55      C      0.120460000000     0.085090000000     0.039670000000     0.0385211  
C56      C      0.095430000000     0.110730000000     0.940070000000     0.0698053  
C57      C      0.048510000000     0.916880000000     0.004650000000     0.389014   
C58      C      0.425600000000     0.541230000000     0.004050000000     0.39621    
C59      C      0.055440000000     0.545760000000     0.993770000000     0.426536   
C60      C      0.417960000000     0.918090000000     0.016860000000     0.432604   
C61      C      0.057230000000     0.929460000000     0.501310000000     0.390858   
C62      C      0.422720000000     0.542760000000     0.497830000000     0.390163   
C63      C      0.050920000000     0.558010000000     0.498620000000     0.427524   
C64      C      0.428770000000     0.914280000000     0.501220000000     0.427466   
C65      C      0.244290000000     0.735830000000     0.880170000000     0.474105   
C66      C      0.238430000000     0.731390000000     0.119450000000     0.474461   
C67      C      0.297160000000     0.669140000000     0.000080000000     0.436274   
C68      C      0.176170000000     0.787610000000     0.002230000000     0.448917   
C69      C      0.238320000000     0.738620000000     0.380000000000     0.473836   
C70      C      0.241320000000     0.734720000000     0.619180000000     0.473171   
C71      C      0.296550000000     0.673620000000     0.497820000000     0.443093   
C72      C      0.183600000000     0.798900000000     0.502180000000     0.442898   
C73      C      0.217490000000     0.701760000000     0.717730000000     0.0331335  
C74      C      0.269730000000     0.769370000000     0.714450000000     0.0228176  
C75      C      0.218840000000     0.702750000000     0.783160000000     0.0305085  
C76      C      0.271550000000     0.770770000000     0.780290000000     0.0632894  
C77      C      0.204310000000     0.708310000000     0.218230000000     0.0331272  
C78      C      0.270440000000     0.762900000000     0.214270000000     0.0231842  
C79      C      0.204590000000     0.711190000000     0.283820000000     0.0311142  
C80      C      0.270510000000     0.766930000000     0.279730000000     0.0644021  
C81      C      0.113300000000     0.826300000000     0.537390000000     0.032429   
C82      C      0.162290000000     0.871610000000     0.468240000000     0.0210303  
C83      C      0.083080000000     0.860540000000     0.539200000000     0.0288445  
C84      C      0.130140000000     0.904460000000     0.465640000000     0.06415    
C85      C      0.322960000000     0.846500000000     0.541310000000     0.0303745  
C86      C      0.359690000000     0.807240000000     0.461840000000     0.0214042  
C87      C      0.360220000000     0.879650000000     0.543380000000     0.0383415  
C88      C      0.396800000000     0.841330000000     0.461500000000     0.0708315  
C89      C      0.367010000000     0.646370000000     0.532020000000     0.0323689  
C90      C      0.318060000000     0.601060000000     0.462860000000     0.0221265  
C91      C      0.397220000000     0.612210000000     0.533870000000     0.0290501  
C92      C      0.350310000000     0.568220000000     0.460250000000     0.0623924  
C93      C      0.151180000000     0.631490000000     0.450090000000     0.0311762  
C94      C      0.124800000000     0.660210000000     0.546070000000     0.0197892  
C95      C      0.113660000000     0.598540000000     0.448780000000     0.0382215  
C96      C      0.087420000000     0.626480000000     0.546420000000     0.0728961  
C97      C      0.078370000000     0.851040000000     0.960000000000     0.0280613  
C98      C      0.113470000000     0.885740000000     0.050200000000     0.0176608  
C99      C      0.109260000000     0.817390000000     0.961940000000     0.0327638  
C100     C      0.146910000000     0.854280000000     0.049690000000     0.0643291  
C101     C      0.354000000000     0.809890000000     0.043470000000     0.0252811  
C102     C      0.307370000000     0.856060000000     0.985180000000     0.0240803  
C103     C      0.386690000000     0.847070000000     0.051750000000     0.0419841  
C104     C      0.340570000000     0.893840000000     0.992260000000     0.0699874  
C105     C      0.374600000000     0.649060000000     0.989550000000     0.0304665  
C106     C      0.314210000000     0.590320000000     0.010550000000     0.0209551  
C107     C      0.406560000000     0.616570000000     0.989920000000     0.0330603  
C108     C      0.346610000000     0.557340000000     0.013230000000     0.0621871  
C109     C      0.155430000000     0.620620000000     0.040910000000     0.028596   
C110     C      0.130450000000     0.647040000000     0.942870000000     0.0219014  
C111     C      0.120460000000     0.585090000000     0.039670000000     0.0384976  
C112     C      0.095430000000     0.610730000000     0.940070000000     0.0698108  
C113     C      0.548510000000     0.416880000000     0.004650000000     0.389176   
C114     C      0.925600000000     0.041230000000     0.004050000000     0.396173   
C115     C      0.555440000000     0.045760000000     0.993770000000     0.426566   
C116     C      0.917960000000     0.418090000000     0.016860000000     0.432596   
C117     C      0.557230000000     0.429460000000     0.501310000000     0.390977   
C118     C      0.922720000000     0.042760000000     0.497830000000     0.390008   
C119     C      0.550920000000     0.058010000000     0.498620000000     0.427583   
C120     C      0.928770000000     0.414290000000     0.501220000000     0.427498   
C121     C      0.744280000000     0.235830000000     0.880170000000     0.4741     
C122     C      0.738430000000     0.231390000000     0.119450000000     0.474462   
C123     C      0.797160000000     0.169140000000     0.000080000000     0.436432   
C124     C      0.676170000000     0.287610000000     0.002230000000     0.448908   
C125     C      0.738320000000     0.238620000000     0.380000000000     0.474005   
C126     C      0.741320000000     0.234720000000     0.619180000000     0.473171   
C127     C      0.796550000000     0.173620000000     0.497820000000     0.443096   
C128     C      0.683600000000     0.298900000000     0.502180000000     0.442894   
C129     C      0.717490000000     0.201760000000     0.717730000000     0.0331684  
C130     C      0.769730000000     0.269370000000     0.714450000000     0.0228167  
C131     C      0.718840000000     0.202740000000     0.783160000000     0.0304449  
C132     C      0.771550000000     0.270770000000     0.780290000000     0.0632911  
C133     C      0.704310000000     0.208320000000     0.218230000000     0.0331588  
C134     C      0.770440000000     0.262900000000     0.214270000000     0.0231836  
C135     C      0.704590000000     0.211190000000     0.283820000000     0.031106   
C136     C      0.770510000000     0.266930000000     0.279730000000     0.064396   
C137     C      0.613300000000     0.326300000000     0.537390000000     0.0324063  
C138     C      0.662290000000     0.371610000000     0.468240000000     0.0210457  
C139     C      0.583080000000     0.360540000000     0.539200000000     0.0288165  
C140     C      0.630140000000     0.404460000000     0.465640000000     0.0641085  
C141     C      0.822960000000     0.346500000000     0.541310000000     0.0303862  
C142     C      0.859690000000     0.307240000000     0.461840000000     0.0213793  
C143     C      0.860220000000     0.379650000000     0.543380000000     0.038336   
C144     C      0.896800000000     0.341330000000     0.461500000000     0.0708721  
C145     C      0.867010000000     0.146370000000     0.532020000000     0.0323619  
C146     C      0.818060000000     0.101060000000     0.462860000000     0.0221677  
C147     C      0.897220000000     0.112210000000     0.533870000000     0.0290362  
C148     C      0.850310000000     0.068220000000     0.460250000000     0.0623367  
C149     C      0.651180000000     0.131490000000     0.450090000000     0.0312158  
C150     C      0.624800000000     0.160210000000     0.546070000000     0.0197233  
C151     C      0.613660000000     0.098540000000     0.448780000000     0.0381904  
C152     C      0.587420000000     0.126480000000     0.546420000000     0.0729655  
C153     C      0.578370000000     0.351040000000     0.960000000000     0.0280416  
C154     C      0.613470000000     0.385740000000     0.050200000000     0.0176603  
C155     C      0.609260000000     0.317390000000     0.961940000000     0.0327366  
C156     C      0.646910000000     0.354280000000     0.049690000000     0.064318   
C157     C      0.854000000000     0.309890000000     0.043470000000     0.0252985  
C158     C      0.807370000000     0.356060000000     0.985180000000     0.0240982  
C159     C      0.886700000000     0.347070000000     0.051750000000     0.0419243  
C160     C      0.840560000000     0.393840000000     0.992260000000     0.0699377  
C161     C      0.874600000000     0.149060000000     0.989550000000     0.0304367  
C162     C      0.814210000000     0.090320000000     0.010550000000     0.0208843  
C163     C      0.906560000000     0.116570000000     0.989920000000     0.0330776  
C164     C      0.846610000000     0.057350000000     0.013230000000     0.0625631  
C165     C      0.655430000000     0.120620000000     0.040910000000     0.0285971  
C166     C      0.630450000000     0.147040000000     0.942870000000     0.0218827  
C167     C      0.620460000000     0.085090000000     0.039670000000     0.0385093  
C168     C      0.595430000000     0.110730000000     0.940070000000     0.0698424  
C169     C      0.548510000000     0.916880000000     0.004650000000     0.389087   
C170     C      0.925600000000     0.541230000000     0.004050000000     0.396144   
C171     C      0.555440000000     0.545760000000     0.993770000000     0.426634   
C172     C      0.917960000000     0.918090000000     0.016860000000     0.432542   
C173     C      0.557230000000     0.929460000000     0.501310000000     0.390933   
C174     C      0.922720000000     0.542760000000     0.497830000000     0.390079   
C175     C      0.550920000000     0.558010000000     0.498620000000     0.427607   
C176     C      0.928770000000     0.914280000000     0.501220000000     0.427384   
C177     C      0.744280000000     0.735830000000     0.880170000000     0.4741     
C178     C      0.738430000000     0.731390000000     0.119450000000     0.474455   
C179     C      0.797160000000     0.669140000000     0.000080000000     0.436425   
C180     C      0.676170000000     0.787610000000     0.002230000000     0.448906   
C181     C      0.738320000000     0.738620000000     0.380000000000     0.473841   
C182     C      0.741320000000     0.734720000000     0.619180000000     0.473169   
C183     C      0.796540000000     0.673620000000     0.497820000000     0.442993   
C184     C      0.683600000000     0.798900000000     0.502180000000     0.442893   
C185     C      0.717490000000     0.701760000000     0.717730000000     0.0331165  
C186     C      0.769730000000     0.769370000000     0.714450000000     0.0228019  
C187     C      0.718840000000     0.702750000000     0.783160000000     0.0304985  
C188     C      0.771550000000     0.770770000000     0.780290000000     0.0632975  
C189     C      0.704310000000     0.708310000000     0.218230000000     0.0330801  
C190     C      0.770440000000     0.762900000000     0.214270000000     0.0231704  
C191     C      0.704600000000     0.711190000000     0.283820000000     0.0311694  
C192     C      0.770510000000     0.766930000000     0.279730000000     0.0644027  
C193     C      0.613300000000     0.826300000000     0.537390000000     0.032395   
C194     C      0.662290000000     0.871610000000     0.468240000000     0.0210109  
C195     C      0.583080000000     0.860540000000     0.539200000000     0.0288111  
C196     C      0.630140000000     0.904460000000     0.465640000000     0.0641453  
C197     C      0.822960000000     0.846500000000     0.541310000000     0.0304139  
C198     C      0.859690000000     0.807240000000     0.461840000000     0.0213379  
C199     C      0.860220000000     0.879650000000     0.543380000000     0.0383041  
C200     C      0.896800000000     0.841330000000     0.461500000000     0.0708774  
C201     C      0.867010000000     0.646370000000     0.532020000000     0.0323385  
C202     C      0.818060000000     0.601060000000     0.462860000000     0.0220981  
C203     C      0.897220000000     0.612210000000     0.533870000000     0.0290237  
C204     C      0.850310000000     0.568220000000     0.460250000000     0.0623877  
C205     C      0.651180000000     0.631490000000     0.450090000000     0.0311617  
C206     C      0.624800000000     0.660210000000     0.546070000000     0.0197473  
C207     C      0.613660000000     0.598540000000     0.448780000000     0.0382046  
C208     C      0.587420000000     0.626480000000     0.546420000000     0.0729413  
C209     C      0.578370000000     0.851040000000     0.960000000000     0.0280287  
C210     C      0.613470000000     0.885740000000     0.050200000000     0.0176349  
C211     C      0.609260000000     0.817390000000     0.961940000000     0.0327296  
C212     C      0.646910000000     0.854280000000     0.049690000000     0.0643193  
C213     C      0.854000000000     0.809890000000     0.043470000000     0.0252661  
C214     C      0.807370000000     0.856060000000     0.985180000000     0.0240736  
C215     C      0.886690000000     0.847070000000     0.051750000000     0.0419581  
C216     C      0.840570000000     0.893840000000     0.992260000000     0.0699858  
C217     C      0.874600000000     0.649060000000     0.989550000000     0.0304483  
C218     C      0.814210000000     0.590320000000     0.010550000000     0.0209563  
C219     C      0.906560000000     0.616570000000     0.989920000000     0.0330261  
C220     C      0.846610000000     0.557340000000     0.013230000000     0.0621759  
C221     C      0.655430000000     0.620620000000     0.040910000000     0.0285709  
C222     C      0.630450000000     0.647040000000     0.942870000000     0.0218462  
C223     C      0.620460000000     0.585090000000     0.039670000000     0.0384852  
C224     C      0.595440000000     0.610730000000     0.940070000000     0.0698533  
Cu1      Cu     0.484780000000     0.977680000000     0.946800000000     0.86077    
Cu2      Cu     0.990680000000     0.482490000000     0.062580000000     0.863866   
Cu3      Cu     0.490240000000     0.985160000000     0.441680000000     0.856537   
Cu4      Cu     0.989630000000     0.486910000000     0.557600000000     0.859606   
Cu5      Cu     0.272910000000     0.264980000000     0.002460000000     1.14877    
Cu6      Cu     0.204630000000     0.197730000000     0.997230000000     1.12288    
Cu7      Cu     0.274990000000     0.267910000000     0.499640000000     1.14977    
Cu8      Cu     0.204760000000     0.204290000000     0.499740000000     1.10864    
Cu9      Cu     0.484780000000     0.477680000000     0.946800000000     0.861319   
Cu10     Cu     0.990680000000     0.982500000000     0.062580000000     0.863156   
Cu11     Cu     0.490230000000     0.485160000000     0.441680000000     0.85723    
Cu12     Cu     0.989630000000     0.986910000000     0.557600000000     0.858888   
Cu13     Cu     0.272910000000     0.764980000000     0.002460000000     1.14877    
Cu14     Cu     0.204630000000     0.697730000000     0.997230000000     1.12287    
Cu15     Cu     0.274990000000     0.767910000000     0.499640000000     1.14976    
Cu16     Cu     0.204760000000     0.704290000000     0.499740000000     1.10871    
Cu17     Cu     0.984780000000     0.977680000000     0.946800000000     0.859895   
Cu18     Cu     0.490680000000     0.482490000000     0.062580000000     0.864667   
Cu19     Cu     0.990240000000     0.985160000000     0.441680000000     0.855753   
Cu20     Cu     0.489630000000     0.486910000000     0.557600000000     0.860417   
Cu21     Cu     0.772910000000     0.264980000000     0.002460000000     1.14878    
Cu22     Cu     0.704630000000     0.197730000000     0.997230000000     1.12282    
Cu23     Cu     0.774990000000     0.267910000000     0.499640000000     1.14979    
Cu24     Cu     0.704760000000     0.204290000000     0.499740000000     1.10869    
Cu25     Cu     0.984780000000     0.477680000000     0.946800000000     0.860522   
Cu26     Cu     0.490680000000     0.982500000000     0.062580000000     0.863946   
Cu27     Cu     0.990240000000     0.485160000000     0.441680000000     0.856451   
Cu28     Cu     0.489630000000     0.986910000000     0.557600000000     0.859701   
Cu29     Cu     0.772910000000     0.764980000000     0.002460000000     1.14878    
Cu30     Cu     0.704630000000     0.697730000000     0.997230000000     1.12281    
Cu31     Cu     0.774990000000     0.767910000000     0.499640000000     1.14981    
Cu32     Cu     0.704760000000     0.704290000000     0.499740000000     1.10878    
H1       H      0.197760000000     0.175240000000     0.807390000000     0.0400672  
H2       H      0.195690000000     0.173980000000     0.695100000000     0.0389721  
H3       H      0.290330000000     0.296220000000     0.688090000000     0.043634   
H4       H      0.177950000000     0.189400000000     0.308860000000     0.0384241  
H5       H      0.177500000000     0.185070000000     0.195770000000     0.036923   
H6       H      0.296510000000     0.284590000000     0.187780000000     0.0461147  
H7       H      0.052360000000     0.354430000000     0.568380000000     0.0370261  
H8       H      0.104830000000     0.295890000000     0.565980000000     0.0369717  
H9       H      0.193820000000     0.377350000000     0.440480000000     0.0442433  
H10      H      0.358660000000     0.408170000000     0.575510000000     0.0368023  
H11      H      0.293480000000     0.348920000000     0.571570000000     0.0326337  
H12      H      0.359240000000     0.277290000000     0.432000000000     0.0380797  
H13      H      0.427840000000     0.118370000000     0.563230000000     0.0376647  
H14      H      0.375470000000     0.176730000000     0.560720000000     0.0390673  
H15      H      0.286520000000     0.095330000000     0.435130000000     0.0419126  
H16      H      0.111150000000     0.074180000000     0.410160000000     0.0362978  
H17      H      0.176750000000     0.133130000000     0.412990000000     0.0305999  
H18      H      0.129280000000     0.186050000000     0.582640000000     0.036497   
H19      H      0.105810000000     0.290950000000     0.926060000000     0.0357984  
H20      H      0.052180000000     0.348470000000     0.923470000000     0.0386259  
H21      H      0.115560000000     0.411960000000     0.086490000000     0.0432749  
H22      H      0.418330000000     0.342390000000     0.076830000000     0.0333915  
H23      H      0.359020000000     0.277120000000     0.063840000000     0.0329125  
H24      H      0.275450000000     0.359210000000     0.960360000000     0.0370654  
H25      H      0.442720000000     0.128410000000     0.980780000000     0.0321603  
H26      H      0.387740000000     0.184490000000     0.980060000000     0.0393489  
H27      H      0.277980000000     0.078560000000     0.018990000000     0.0439328  
H28      H      0.118270000000     0.061030000000     0.078640000000     0.035416   
H29      H      0.179590000000     0.124040000000     0.079730000000     0.0307447  
H30      H      0.134560000000     0.172760000000     0.906140000000     0.0358667  
H31      H      0.197760000000     0.675240000000     0.807390000000     0.0400298  
H32      H      0.195690000000     0.673980000000     0.695100000000     0.038956   
H33      H      0.290330000000     0.796220000000     0.688090000000     0.0436258  
H34      H      0.177950000000     0.689400000000     0.308860000000     0.0384056  
H35      H      0.177500000000     0.685070000000     0.195770000000     0.0369194  
H36      H      0.296510000000     0.784590000000     0.187780000000     0.0461099  
H37      H      0.052360000000     0.854420000000     0.568380000000     0.037014   
H38      H      0.104830000000     0.795890000000     0.565980000000     0.0369697  
H39      H      0.193820000000     0.877350000000     0.440480000000     0.0442208  
H40      H      0.358660000000     0.908170000000     0.575510000000     0.0367397  
H41      H      0.293480000000     0.848920000000     0.571570000000     0.0326132  
H42      H      0.359240000000     0.777290000000     0.432000000000     0.0380797  
H43      H      0.427840000000     0.618370000000     0.563230000000     0.0376469  
H44      H      0.375470000000     0.676730000000     0.560720000000     0.039062   
H45      H      0.286520000000     0.595330000000     0.435130000000     0.0418838  
H46      H      0.111150000000     0.574180000000     0.410160000000     0.0362128  
H47      H      0.176750000000     0.633130000000     0.412990000000     0.0305856  
H48      H      0.129280000000     0.686050000000     0.582640000000     0.0364898  
H49      H      0.105810000000     0.790950000000     0.926060000000     0.0357935  
H50      H      0.052180000000     0.848460000000     0.923470000000     0.038605   
H51      H      0.115560000000     0.911960000000     0.086490000000     0.0432255  
H52      H      0.418330000000     0.842390000000     0.076830000000     0.0333829  
H53      H      0.359020000000     0.777120000000     0.063840000000     0.0329169  
H54      H      0.275450000000     0.859210000000     0.960360000000     0.0370524  
H55      H      0.442720000000     0.628410000000     0.980780000000     0.0321631  
H56      H      0.387740000000     0.684490000000     0.980060000000     0.0393405  
H57      H      0.277980000000     0.578570000000     0.018990000000     0.0438192  
H58      H      0.118270000000     0.561030000000     0.078640000000     0.0353307  
H59      H      0.179590000000     0.624050000000     0.079730000000     0.0307193  
H60      H      0.134560000000     0.672760000000     0.906140000000     0.0358657  
H61      H      0.697760000000     0.175240000000     0.807390000000     0.0400609  
H62      H      0.695690000000     0.173980000000     0.695100000000     0.0389631  
H63      H      0.790330000000     0.296220000000     0.688090000000     0.0436227  
H64      H      0.677940000000     0.189400000000     0.308860000000     0.038389   
H65      H      0.677500000000     0.185070000000     0.195770000000     0.0368968  
H66      H      0.796510000000     0.284590000000     0.187780000000     0.0461072  
H67      H      0.552360000000     0.354430000000     0.568380000000     0.0369211  
H68      H      0.604830000000     0.295890000000     0.565980000000     0.0369302  
H69      H      0.693820000000     0.377350000000     0.440480000000     0.0442409  
H70      H      0.858660000000     0.408170000000     0.575510000000     0.0367947  
H71      H      0.793480000000     0.348920000000     0.571570000000     0.0326306  
H72      H      0.859240000000     0.277290000000     0.432000000000     0.03807    
H73      H      0.927840000000     0.118370000000     0.563230000000     0.0375665  
H74      H      0.875470000000     0.176730000000     0.560720000000     0.0390249  
H75      H      0.786520000000     0.095330000000     0.435130000000     0.0419102  
H76      H      0.611150000000     0.074180000000     0.410160000000     0.03627    
H77      H      0.676750000000     0.133130000000     0.412990000000     0.0305929  
H78      H      0.629270000000     0.186050000000     0.582640000000     0.0364895  
H79      H      0.605810000000     0.290950000000     0.926060000000     0.0357589  
H80      H      0.552180000000     0.348470000000     0.923470000000     0.0385341  
H81      H      0.615560000000     0.411960000000     0.086490000000     0.0432452  
H82      H      0.918330000000     0.342390000000     0.076830000000     0.0333202  
H83      H      0.859020000000     0.277120000000     0.063840000000     0.0328855  
H84      H      0.775450000000     0.359210000000     0.960360000000     0.0370598  
H85      H      0.942720000000     0.128410000000     0.980780000000     0.0320526  
H86      H      0.887740000000     0.184490000000     0.980060000000     0.0392975  
H87      H      0.777980000000     0.078560000000     0.018990000000     0.0439298  
H88      H      0.618270000000     0.061030000000     0.078640000000     0.035383   
H89      H      0.679590000000     0.124040000000     0.079730000000     0.0307354  
H90      H      0.634560000000     0.172760000000     0.906140000000     0.035859   
H91      H      0.697760000000     0.675240000000     0.807390000000     0.0400222  
H92      H      0.695700000000     0.673980000000     0.695100000000     0.0389517  
H93      H      0.790330000000     0.796220000000     0.688090000000     0.0436146  
H94      H      0.677940000000     0.689400000000     0.308860000000     0.0383602  
H95      H      0.677500000000     0.685070000000     0.195770000000     0.0368995  
H96      H      0.796510000000     0.784590000000     0.187780000000     0.0461026  
H97      H      0.552360000000     0.854420000000     0.568380000000     0.0369087  
H98      H      0.604830000000     0.795890000000     0.565980000000     0.0369285  
H99      H      0.693820000000     0.877350000000     0.440480000000     0.0442197  
H100     H      0.858660000000     0.908170000000     0.575510000000     0.0367368  
H101     H      0.793480000000     0.848920000000     0.571570000000     0.0326021  
H102     H      0.859240000000     0.777290000000     0.432000000000     0.0380814  
H103     H      0.927840000000     0.618370000000     0.563230000000     0.0375489  
H104     H      0.875470000000     0.676730000000     0.560720000000     0.0390256  
H105     H      0.786520000000     0.595330000000     0.435130000000     0.0418861  
H106     H      0.611150000000     0.574180000000     0.410160000000     0.0361787  
H107     H      0.676750000000     0.633130000000     0.412990000000     0.0305825  
H108     H      0.629280000000     0.686050000000     0.582640000000     0.0364826  
H109     H      0.605810000000     0.790950000000     0.926060000000     0.0357542  
H110     H      0.552180000000     0.848460000000     0.923470000000     0.0385141  
H111     H      0.615560000000     0.911960000000     0.086490000000     0.0431957  
H112     H      0.918330000000     0.842390000000     0.076830000000     0.0333095  
H113     H      0.859020000000     0.777120000000     0.063840000000     0.0328906  
H114     H      0.775450000000     0.859210000000     0.960360000000     0.037051   
H115     H      0.942720000000     0.628410000000     0.980780000000     0.032055   
H116     H      0.887740000000     0.684490000000     0.980060000000     0.0392888  
H117     H      0.777980000000     0.578570000000     0.018990000000     0.043816   
H118     H      0.618270000000     0.561030000000     0.078640000000     0.0352978  
H119     H      0.679590000000     0.624050000000     0.079730000000     0.0307102  
H120     H      0.634560000000     0.672760000000     0.906140000000     0.035862   
N1       N      0.242760000000     0.235130000000     0.683530000000    -0.187562   
N2       N      0.245490000000     0.237020000000     0.815230000000    -0.19005    
N3       N      0.237670000000     0.233670000000     0.183760000000    -0.187314   
N4       N      0.238070000000     0.239530000000     0.315150000000    -0.190489   
N5       N      0.153300000000     0.332040000000     0.502660000000    -0.178543   
N6       N      0.090310000000     0.398930000000     0.501990000000    -0.173632   
N7       N      0.323580000000     0.311440000000     0.500480000000    -0.250155   
N8       N      0.396030000000     0.377910000000     0.502090000000    -0.188508   
N9       N      0.326940000000     0.140560000000     0.497480000000    -0.178603   
N10      N      0.390010000000     0.073700000000     0.496870000000    -0.173276   
N11      N      0.155970000000     0.161010000000     0.498880000000    -0.245674   
N12      N      0.083140000000     0.094900000000     0.498020000000    -0.188215   
N13      N      0.079920000000     0.384810000000     0.004730000000    -0.168662   
N14      N      0.144500000000     0.319490000000     0.005260000000    -0.185329   
N15      N      0.316040000000     0.314750000000     0.008630000000    -0.243131   
N16      N      0.380960000000     0.387170000000     0.022190000000    -0.192317   
N17      N      0.328310000000     0.136380000000     0.000080000000    -0.175631   
N18      N      0.392960000000     0.071430000000     0.003530000000    -0.176784   
N19      N      0.159040000000     0.151000000000     0.993210000000    -0.246055   
N20      N      0.090400000000     0.080230000000     0.989840000000    -0.187195   
N21      N      0.242760000000     0.735130000000     0.683530000000    -0.187559   
N22      N      0.245490000000     0.737020000000     0.815230000000    -0.190071   
N23      N      0.237670000000     0.733670000000     0.183760000000    -0.187301   
N24      N      0.238070000000     0.739530000000     0.315150000000    -0.190497   
N25      N      0.153300000000     0.832040000000     0.502660000000    -0.178542   
N26      N      0.090310000000     0.898930000000     0.501990000000    -0.173642   
N27      N      0.323580000000     0.811440000000     0.500480000000    -0.250154   
N28      N      0.396030000000     0.877910000000     0.502090000000    -0.188542   
N29      N      0.326940000000     0.640560000000     0.497480000000    -0.178603   
N30      N      0.390010000000     0.573700000000     0.496870000000    -0.173322   
N31      N      0.155970000000     0.661020000000     0.498880000000    -0.245722   
N32      N      0.083140000000     0.594900000000     0.498020000000    -0.188253   
N33      N      0.079920000000     0.884810000000     0.004730000000    -0.168661   
N34      N      0.144500000000     0.819490000000     0.005260000000    -0.185332   
N35      N      0.316040000000     0.814750000000     0.008630000000    -0.243126   
N36      N      0.380960000000     0.887170000000     0.022190000000    -0.192321   
N37      N      0.328310000000     0.636380000000     0.000080000000    -0.175657   
N38      N      0.392950000000     0.571430000000     0.003530000000    -0.176729   
N39      N      0.159040000000     0.651000000000     0.993210000000    -0.246055   
N40      N      0.090400000000     0.580230000000     0.989840000000    -0.187233   
N41      N      0.742760000000     0.235130000000     0.683530000000    -0.187564   
N42      N      0.745490000000     0.237020000000     0.815230000000    -0.190052   
N43      N      0.737670000000     0.233670000000     0.183760000000    -0.187314   
N44      N      0.738070000000     0.239530000000     0.315150000000    -0.190529   
N45      N      0.653300000000     0.332040000000     0.502660000000    -0.178547   
N46      N      0.590310000000     0.398930000000     0.501990000000    -0.173669   
N47      N      0.823580000000     0.311440000000     0.500480000000    -0.250155   
N48      N      0.896030000000     0.377910000000     0.502090000000    -0.188514   
N49      N      0.826940000000     0.140560000000     0.497480000000    -0.178606   
N50      N      0.890010000000     0.073700000000     0.496870000000    -0.17328    
N51      N      0.655970000000     0.161010000000     0.498880000000    -0.245678   
N52      N      0.583130000000     0.094900000000     0.498020000000    -0.188297   
N53      N      0.579920000000     0.384810000000     0.004730000000    -0.168701   
N54      N      0.644500000000     0.319490000000     0.005260000000    -0.185334   
N55      N      0.816040000000     0.314750000000     0.008630000000    -0.243136   
N56      N      0.880960000000     0.387170000000     0.022190000000    -0.192293   
N57      N      0.828310000000     0.136380000000     0.000080000000    -0.17566    
N58      N      0.892960000000     0.071430000000     0.003530000000    -0.176785   
N59      N      0.659040000000     0.151000000000     0.993210000000    -0.246049   
N60      N      0.590400000000     0.080230000000     0.989840000000    -0.187244   
N61      N      0.742760000000     0.735130000000     0.683530000000    -0.187559   
N62      N      0.745490000000     0.737020000000     0.815230000000    -0.190074   
N63      N      0.737670000000     0.733670000000     0.183760000000    -0.187297   
N64      N      0.738070000000     0.739530000000     0.315150000000    -0.19052    
N65      N      0.653300000000     0.832040000000     0.502660000000    -0.178545   
N66      N      0.590310000000     0.898930000000     0.501990000000    -0.173682   
N67      N      0.823570000000     0.811440000000     0.500480000000    -0.250205   
N68      N      0.896030000000     0.877910000000     0.502090000000    -0.188548   
N69      N      0.826940000000     0.640560000000     0.497480000000    -0.178547   
N70      N      0.890010000000     0.573700000000     0.496870000000    -0.173325   
N71      N      0.655970000000     0.661020000000     0.498880000000    -0.245724   
N72      N      0.583140000000     0.594900000000     0.498020000000    -0.188302   
N73      N      0.579920000000     0.884810000000     0.004730000000    -0.1687     
N74      N      0.644500000000     0.819490000000     0.005260000000    -0.185337   
N75      N      0.816040000000     0.814750000000     0.008630000000    -0.24313    
N76      N      0.880960000000     0.887170000000     0.022190000000    -0.192316   
N77      N      0.828310000000     0.636380000000     0.000080000000    -0.175686   
N78      N      0.892950000000     0.571430000000     0.003530000000    -0.176731   
N79      N      0.659040000000     0.651000000000     0.993210000000    -0.246046   
N80      N      0.590400000000     0.580230000000     0.989840000000    -0.187283   
O1       O      0.027970000000     0.426490000000     0.953350000000    -0.38028    
O2       O      0.441780000000     0.028160000000     0.951670000000    -0.382613   
O3       O      0.039310000000     0.025480000000     0.943930000000    -0.408316   
O4       O      0.429900000000     0.432530000000     0.961930000000    -0.414639   
O5       O      0.441090000000     0.430470000000     0.066080000000    -0.41646    
O6       O      0.039810000000     0.033870000000     0.048280000000    -0.417346   
O7       O      0.440280000000     0.026620000000     0.056700000000    -0.380039   
O8       O      0.039820000000     0.437580000000     0.056020000000    -0.383273   
O9       O      0.044500000000     0.446010000000     0.448820000000    -0.378142   
O10      O      0.435700000000     0.024760000000     0.446350000000    -0.375669   
O11      O      0.034990000000     0.041470000000     0.446320000000    -0.413017   
O12      O      0.446040000000     0.428540000000     0.448600000000    -0.410523   
O13      O      0.439560000000     0.435210000000     0.552780000000    -0.415832   
O14      O      0.039110000000     0.039050000000     0.551130000000    -0.411469   
O15      O      0.441820000000     0.033330000000     0.550210000000    -0.380766   
O16      O      0.037750000000     0.440130000000     0.552950000000    -0.379137   
O17      O      0.267870000000     0.266060000000     0.912840000000    -0.476791   
O18      O      0.271250000000     0.253810000000     0.089890000000    -0.483417   
O19      O      0.311120000000     0.212220000000     0.996000000000    -0.433831   
O20      O      0.218760000000     0.299230000000     0.014500000000    -0.450634   
O21      O      0.163620000000     0.246190000000     0.986700000000    -0.442048   
O22      O      0.253750000000     0.156980000000     0.004180000000    -0.441227   
O23      O      0.206190000000     0.208290000000     0.088670000000    -0.462943   
O24      O      0.218870000000     0.204120000000     0.908420000000    -0.470323   
O25      O      0.272630000000     0.257390000000     0.410680000000    -0.476381   
O26      O      0.264240000000     0.266510000000     0.588440000000    -0.480611   
O27      O      0.310820000000     0.215240000000     0.510750000000    -0.445237   
O28      O      0.226280000000     0.309220000000     0.488720000000    -0.443238   
O29      O      0.169410000000     0.257140000000     0.514560000000    -0.439956   
O30      O      0.253630000000     0.163290000000     0.485570000000    -0.43818    
O31      O      0.217210000000     0.202900000000     0.589500000000    -0.463031   
O32      O      0.204690000000     0.217670000000     0.410280000000    -0.46484    
O33      O      0.027970000000     0.926500000000     0.953350000000    -0.380271   
O34      O      0.441780000000     0.528170000000     0.951670000000    -0.382888   
O35      O      0.039310000000     0.525480000000     0.943930000000    -0.408663   
O36      O      0.429900000000     0.932530000000     0.961930000000    -0.414592   
O37      O      0.441090000000     0.930470000000     0.066080000000    -0.416354   
O38      O      0.039810000000     0.533870000000     0.048280000000    -0.417639   
O39      O      0.440280000000     0.526620000000     0.056700000000    -0.380342   
O40      O      0.039820000000     0.937580000000     0.056020000000    -0.3832     
O41      O      0.044500000000     0.946010000000     0.448820000000    -0.378114   
O42      O      0.435700000000     0.524760000000     0.446350000000    -0.376038   
O43      O      0.034990000000     0.541470000000     0.446320000000    -0.413356   
O44      O      0.446040000000     0.928540000000     0.448600000000    -0.410404   
O45      O      0.439560000000     0.935210000000     0.552780000000    -0.415734   
O46      O      0.039110000000     0.539050000000     0.551130000000    -0.411822   
O47      O      0.441820000000     0.533330000000     0.550210000000    -0.381094   
O48      O      0.037750000000     0.940130000000     0.552950000000    -0.379108   
O49      O      0.267870000000     0.766060000000     0.912840000000    -0.476794   
O50      O      0.271250000000     0.753810000000     0.089890000000    -0.483418   
O51      O      0.311120000000     0.712220000000     0.996000000000    -0.433833   
O52      O      0.218760000000     0.799230000000     0.014500000000    -0.450636   
O53      O      0.163620000000     0.746190000000     0.986700000000    -0.442045   
O54      O      0.253750000000     0.656980000000     0.004180000000    -0.44125    
O55      O      0.206190000000     0.708290000000     0.088670000000    -0.462944   
O56      O      0.218870000000     0.704120000000     0.908420000000    -0.470333   
O57      O      0.272630000000     0.757390000000     0.410680000000    -0.476382   
O58      O      0.264240000000     0.766510000000     0.588440000000    -0.480613   
O59      O      0.310820000000     0.715240000000     0.510750000000    -0.445236   
O60      O      0.226280000000     0.809220000000     0.488720000000    -0.443249   
O61      O      0.169410000000     0.757140000000     0.514560000000    -0.439957   
O62      O      0.253630000000     0.663290000000     0.485570000000    -0.438208   
O63      O      0.217210000000     0.702900000000     0.589500000000    -0.463051   
O64      O      0.204690000000     0.717670000000     0.410280000000    -0.464846   
O65      O      0.527970000000     0.426490000000     0.953350000000    -0.380651   
O66      O      0.941780000000     0.028160000000     0.951670000000    -0.382589   
O67      O      0.539310000000     0.025480000000     0.943930000000    -0.40869    
O68      O      0.929900000000     0.432530000000     0.961930000000    -0.414579   
O69      O      0.941090000000     0.430470000000     0.066080000000    -0.416415   
O70      O      0.539810000000     0.033870000000     0.048280000000    -0.417746   
O71      O      0.940280000000     0.026620000000     0.056700000000    -0.380005   
O72      O      0.539820000000     0.437580000000     0.056020000000    -0.383632   
O73      O      0.544500000000     0.446010000000     0.448820000000    -0.378452   
O74      O      0.935700000000     0.024760000000     0.446350000000    -0.375631   
O75      O      0.534990000000     0.041470000000     0.446320000000    -0.413429   
O76      O      0.946040000000     0.428540000000     0.448600000000    -0.41043    
O77      O      0.939560000000     0.435210000000     0.552780000000    -0.415773   
O78      O      0.539110000000     0.039050000000     0.551130000000    -0.411848   
O79      O      0.941820000000     0.033330000000     0.550210000000    -0.380751   
O80      O      0.537750000000     0.440130000000     0.552950000000    -0.379493   
O81      O      0.767870000000     0.266060000000     0.912840000000    -0.476755   
O82      O      0.771250000000     0.253810000000     0.089890000000    -0.483419   
O83      O      0.811120000000     0.212220000000     0.996000000000    -0.433884   
O84      O      0.718760000000     0.299230000000     0.014500000000    -0.450632   
O85      O      0.663620000000     0.246190000000     0.986700000000    -0.442064   
O86      O      0.753760000000     0.156980000000     0.004180000000    -0.441276   
O87      O      0.706190000000     0.208290000000     0.088670000000    -0.462949   
O88      O      0.718870000000     0.204120000000     0.908420000000    -0.470361   
O89      O      0.772630000000     0.257390000000     0.410680000000    -0.476424   
O90      O      0.764240000000     0.266510000000     0.588440000000    -0.480619   
O91      O      0.810820000000     0.215240000000     0.510750000000    -0.445251   
O92      O      0.726280000000     0.309220000000     0.488720000000    -0.443239   
O93      O      0.669410000000     0.257140000000     0.514560000000    -0.439982   
O94      O      0.753630000000     0.163290000000     0.485570000000    -0.438177   
O95      O      0.717210000000     0.202900000000     0.589500000000    -0.463037   
O96      O      0.704700000000     0.217670000000     0.410280000000    -0.464972   
O97      O      0.527970000000     0.926500000000     0.953350000000    -0.380644   
O98      O      0.941780000000     0.528170000000     0.951670000000    -0.382875   
O99      O      0.539310000000     0.525480000000     0.943930000000    -0.409025   
O100     O      0.929890000000     0.932530000000     0.961930000000    -0.414501   
O101     O      0.941090000000     0.930470000000     0.066080000000    -0.416319   
O102     O      0.539810000000     0.533870000000     0.048280000000    -0.418038   
O103     O      0.940280000000     0.526620000000     0.056700000000    -0.380308   
O104     O      0.539820000000     0.937580000000     0.056020000000    -0.383557   
O105     O      0.544500000000     0.946010000000     0.448820000000    -0.378475   
O106     O      0.935700000000     0.524760000000     0.446350000000    -0.375952   
O107     O      0.534990000000     0.541470000000     0.446320000000    -0.413718   
O108     O      0.946040000000     0.928540000000     0.448600000000    -0.410346   
O109     O      0.939560000000     0.935210000000     0.552780000000    -0.41568    
O110     O      0.539110000000     0.539050000000     0.551130000000    -0.41218    
O111     O      0.941820000000     0.533330000000     0.550210000000    -0.381072   
O112     O      0.537750000000     0.940130000000     0.552950000000    -0.379472   
O113     O      0.767870000000     0.766060000000     0.912840000000    -0.476757   
O114     O      0.771250000000     0.753810000000     0.089890000000    -0.483419   
O115     O      0.811120000000     0.712220000000     0.996000000000    -0.433886   
O116     O      0.718760000000     0.799230000000     0.014500000000    -0.450634   
O117     O      0.663620000000     0.746190000000     0.986700000000    -0.442061   
O118     O      0.753760000000     0.656980000000     0.004180000000    -0.4413     
O119     O      0.706190000000     0.708290000000     0.088670000000    -0.46295    
O120     O      0.718870000000     0.704120000000     0.908420000000    -0.470372   
O121     O      0.772630000000     0.757390000000     0.410680000000    -0.476391   
O122     O      0.764240000000     0.766510000000     0.588440000000    -0.480626   
O123     O      0.810820000000     0.715240000000     0.510750000000    -0.445214   
O124     O      0.726280000000     0.809220000000     0.488720000000    -0.44325    
O125     O      0.669410000000     0.757140000000     0.514560000000    -0.439986   
O126     O      0.753620000000     0.663290000000     0.485570000000    -0.438248   
O127     O      0.717210000000     0.702900000000     0.589500000000    -0.46306    
O128     O      0.704690000000     0.717670000000     0.410280000000    -0.46487    
S1       S      0.304410000000     0.312440000000     0.810560000000     0.00689744 
S2       S      0.306690000000     0.306490000000     0.308820000000     0.00608025 
S3       S      0.143890000000     0.449330000000     0.424460000000    -0.00442724 
S4       S      0.440500000000     0.333730000000     0.419080000000    -0.000292159
S5       S      0.336780000000     0.023440000000     0.418870000000    -0.000437536
S6       S      0.048860000000     0.129210000000     0.599240000000    -0.00631486 
S7       S      0.183850000000     0.358100000000     0.105410000000     0.00165463 
S8       S      0.329430000000     0.449140000000     0.963610000000     0.00181471 
S9       S      0.326090000000     0.998940000000     0.032950000000    -0.00523977 
S10      S      0.059810000000     0.109890000000     0.882910000000    -0.0033158  
S11      S      0.304410000000     0.812440000000     0.810560000000     0.00685209 
S12      S      0.306690000000     0.806490000000     0.308820000000     0.00603085 
S13      S      0.143890000000     0.949330000000     0.424460000000    -0.004692   
S14      S      0.440500000000     0.833730000000     0.419080000000    -0.000315964
S15      S      0.336780000000     0.523440000000     0.418870000000    -0.000773156
S16      S      0.048860000000     0.629210000000     0.599240000000    -0.00638474 
S17      S      0.183850000000     0.858100000000     0.105410000000     0.00159422 
S18      S      0.329430000000     0.949140000000     0.963610000000     0.00170848 
S19      S      0.326090000000     0.498940000000     0.032950000000    -0.00469306 
S20      S      0.059810000000     0.609890000000     0.882910000000    -0.00341587 
S21      S      0.804410000000     0.312440000000     0.810560000000     0.00683727 
S22      S      0.806690000000     0.306490000000     0.308820000000     0.00604668 
S23      S      0.643890000000     0.449330000000     0.424460000000    -0.00448866 
S24      S      0.940500000000     0.333730000000     0.419080000000    -0.000551745
S25      S      0.836780000000     0.023440000000     0.418870000000    -0.000454185
S26      S      0.548860000000     0.129210000000     0.599240000000    -0.00662121 
S27      S      0.683850000000     0.358100000000     0.105410000000     0.00161366 
S28      S      0.829430000000     0.449140000000     0.963610000000     0.00181829 
S29      S      0.826090000000     0.998940000000     0.032950000000    -0.00523898 
S30      S      0.559810000000     0.109890000000     0.882910000000    -0.00358646 
S31      S      0.804410000000     0.812440000000     0.810560000000     0.00679129 
S32      S      0.806690000000     0.806490000000     0.308820000000     0.00600323 
S33      S      0.643890000000     0.949330000000     0.424460000000    -0.00475536 
S34      S      0.940500000000     0.833730000000     0.419080000000    -0.000577252
S35      S      0.836780000000     0.523440000000     0.418870000000    -0.000790553
S36      S      0.548860000000     0.629210000000     0.599240000000    -0.00668996 
S37      S      0.683850000000     0.858100000000     0.105410000000     0.00155354 
S38      S      0.829430000000     0.949140000000     0.963610000000     0.00170825 
S39      S      0.826090000000     0.498940000000     0.032950000000    -0.00469407 
S40      S      0.559810000000     0.609890000000     0.882910000000    -0.00367904 


