data_structure

_audit_creation_method RASPA-1.0
_audit_creation_date 2023-6-4
_audit_author_name 'Poobodin Mano'

_cell_length_a    29.1599
_cell_length_b    29.5607
_cell_length_c    21.3797
_cell_angle_alpha 89.9989
_cell_angle_beta  89.9989
_cell_angle_gamma 96.7172
_cell_volume      18302.5

_symmetry_cell_setting          triclinic
_symmetry_space_group_name_Hall 'P 1'
_symmetry_space_group_name_H-M  'P 1'
_symmetry_Int_Tables_number     1

_symmetry_equiv_pos_as_xyz 'x,y,z'

loop_
_atom_site_label
_atom_site_type_symbol
_atom_site_fract_x
_atom_site_fract_y
_atom_site_fract_z
_atom_site_charge
C1       C      0.056320000000     0.421760000000     0.000380000000     0.398183   
C2       C      0.435220000000     0.049010000000     0.007740000000     0.383758   
C3       C      0.065320000000     0.048900000000     0.997100000000     0.425865   
C4       C      0.426590000000     0.421920000000     0.010830000000     0.423793   
C5       C      0.055060000000     0.428520000000     0.509120000000     0.395251   
C6       C      0.429870000000     0.051690000000     0.503340000000     0.383999   
C7       C      0.059220000000     0.056140000000     0.508870000000     0.421934   
C8       C      0.425860000000     0.423280000000     0.503680000000     0.434921   
C9       C      0.249970000000     0.234450000000     0.887920000000     0.466089   
C10      C      0.238740000000     0.238110000000     0.128090000000     0.466026   
C11      C      0.306400000000     0.176520000000     0.012680000000     0.450308   
C12      C      0.185200000000     0.294080000000     0.001600000000     0.432607   
C13      C      0.238920000000     0.241290000000     0.388310000000     0.476772   
C14      C      0.248570000000     0.238620000000     0.627980000000     0.474677   
C15      C      0.302010000000     0.180400000000     0.502800000000     0.447331   
C16      C      0.183150000000     0.300040000000     0.511870000000     0.43694    
C17      C      0.224180000000     0.203140000000     0.789830000000     0.0275583  
C18      C      0.279650000000     0.267720000000     0.792040000000    -0.0295838  
C19      C      0.224230000000     0.204150000000     0.724580000000     0.0375747  
C20      C      0.279020000000     0.269590000000     0.726320000000     0.202604   
C21      C      0.204480000000     0.212420000000     0.226030000000     0.0263953  
C22      C      0.268750000000     0.268480000000     0.224340000000    -0.0300987  
C23      C      0.204800000000     0.213730000000     0.291810000000     0.0385302  
C24      C      0.269900000000     0.269280000000     0.289590000000     0.206011   
C25      C      0.113020000000     0.327000000000     0.549040000000     0.0260018  
C26      C      0.158300000000     0.369910000000     0.474400000000    -0.0277897  
C27      C      0.082150000000     0.360730000000     0.550510000000     0.0326386  
C28      C      0.125310000000     0.401560000000     0.471560000000     0.19998    
C29      C      0.321820000000     0.353410000000     0.546320000000     0.028532   
C30      C      0.357070000000     0.317980000000     0.462500000000    -0.0280461  
C31      C      0.357460000000     0.388130000000     0.546610000000     0.0484072  
C32      C      0.391890000000     0.353830000000     0.460260000000     0.213319   
C33      C      0.400950000000     0.118470000000     0.544830000000     0.0224577  
C34      C      0.363470000000     0.081390000000     0.458700000000    -0.031044   
C35      C      0.370090000000     0.152040000000     0.542490000000     0.0376532  
C36      C      0.329720000000     0.112500000000     0.460100000000     0.20176    
C37      C      0.122130000000     0.097910000000     0.459690000000     0.032314   
C38      C      0.098830000000     0.118290000000     0.561440000000    -0.0319433  
C39      C      0.157580000000     0.132870000000     0.461410000000     0.0371831  
C40      C      0.132370000000     0.155290000000     0.561030000000     0.209195   
C41      C      0.158600000000     0.363440000000     0.037940000000     0.0259428  
C42      C      0.115540000000     0.320240000000     0.961450000000    -0.0254407  
C43      C      0.124890000000     0.394200000000     0.039560000000     0.0341577  
C44      C      0.084120000000     0.353600000000     0.958380000000     0.198615   
C45      C      0.360060000000     0.383010000000     0.966450000000     0.035073   
C46      C      0.389200000000     0.358570000000     0.063000000000    -0.0305325  
C47      C      0.325840000000     0.346880000000     0.967740000000     0.0367597  
C48      C      0.356930000000     0.320570000000     0.061710000000     0.213903   
C49      C      0.369000000000     0.080020000000     0.965800000000     0.0237043  
C50      C      0.404840000000     0.113100000000     0.055750000000    -0.0312729  
C51      C      0.335280000000     0.110710000000     0.969160000000     0.0420648  
C52      C      0.373540000000     0.146540000000     0.055940000000     0.204461   
C53      C      0.102690000000     0.114720000000     0.950250000000     0.0311738  
C54      C      0.133960000000     0.082860000000     0.040620000000    -0.0319575  
C55      C      0.135430000000     0.152180000000     0.955290000000     0.0399515  
C56      C      0.168010000000     0.119120000000     0.043550000000     0.208524   
C57      C      0.056320000000     0.921760000000     0.000380000000     0.398139   
C58      C      0.435220000000     0.549010000000     0.007740000000     0.383858   
C59      C      0.065320000000     0.548900000000     0.997100000000     0.425922   
C60      C      0.426590000000     0.921920000000     0.010830000000     0.423738   
C61      C      0.055060000000     0.928520000000     0.509120000000     0.395139   
C62      C      0.429870000000     0.551690000000     0.503340000000     0.384044   
C63      C      0.059220000000     0.556140000000     0.508870000000     0.422006   
C64      C      0.425860000000     0.923280000000     0.503680000000     0.434805   
C65      C      0.249970000000     0.734460000000     0.887920000000     0.465948   
C66      C      0.238740000000     0.738110000000     0.128090000000     0.466026   
C67      C      0.306400000000     0.676520000000     0.012680000000     0.450304   
C68      C      0.185200000000     0.794080000000     0.001600000000     0.432601   
C69      C      0.238920000000     0.741290000000     0.388310000000     0.476768   
C70      C      0.248570000000     0.738620000000     0.627980000000     0.474674   
C71      C      0.302010000000     0.680400000000     0.502800000000     0.447326   
C72      C      0.183150000000     0.800050000000     0.511870000000     0.436873   
C73      C      0.224180000000     0.703140000000     0.789830000000     0.0275527  
C74      C      0.279650000000     0.767720000000     0.792040000000    -0.029593   
C75      C      0.224230000000     0.704150000000     0.724580000000     0.0375653  
C76      C      0.279020000000     0.769590000000     0.726320000000     0.202584   
C77      C      0.204480000000     0.712410000000     0.226030000000     0.0264028  
C78      C      0.268750000000     0.768480000000     0.224340000000    -0.0301325  
C79      C      0.204800000000     0.713720000000     0.291810000000     0.0384862  
C80      C      0.269900000000     0.769280000000     0.289590000000     0.206019   
C81      C      0.113020000000     0.827000000000     0.549040000000     0.0259929  
C82      C      0.158300000000     0.869910000000     0.474400000000    -0.0278075  
C83      C      0.082150000000     0.860730000000     0.550510000000     0.032658   
C84      C      0.125310000000     0.901560000000     0.471560000000     0.199993   
C85      C      0.321820000000     0.853410000000     0.546320000000     0.0285056  
C86      C      0.357070000000     0.817980000000     0.462500000000    -0.0280398  
C87      C      0.357460000000     0.888130000000     0.546610000000     0.0484221  
C88      C      0.391890000000     0.853830000000     0.460260000000     0.213283   
C89      C      0.400950000000     0.618470000000     0.544830000000     0.0224401  
C90      C      0.363470000000     0.581390000000     0.458700000000    -0.031071   
C91      C      0.370090000000     0.652040000000     0.542490000000     0.0376404  
C92      C      0.329720000000     0.612500000000     0.460100000000     0.201738   
C93      C      0.122130000000     0.597910000000     0.459690000000     0.0322933  
C94      C      0.098830000000     0.618290000000     0.561440000000    -0.0319578  
C95      C      0.157580000000     0.632870000000     0.461410000000     0.0371629  
C96      C      0.132370000000     0.655290000000     0.561030000000     0.209181   
C97      C      0.158600000000     0.863440000000     0.037940000000     0.0259243  
C98      C      0.115540000000     0.820240000000     0.961450000000    -0.0254524  
C99      C      0.124890000000     0.894200000000     0.039560000000     0.0341349  
C100     C      0.084120000000     0.853600000000     0.958380000000     0.198621   
C101     C      0.360060000000     0.883010000000     0.966450000000     0.0350404  
C102     C      0.389190000000     0.858570000000     0.063000000000    -0.0305461  
C103     C      0.325840000000     0.846880000000     0.967740000000     0.0367552  
C104     C      0.356930000000     0.820570000000     0.061710000000     0.213902   
C105     C      0.369000000000     0.580020000000     0.965800000000     0.0236947  
C106     C      0.404840000000     0.613100000000     0.055750000000    -0.0313061  
C107     C      0.335280000000     0.610710000000     0.969160000000     0.0420332  
C108     C      0.373540000000     0.646540000000     0.055940000000     0.204453   
C109     C      0.102690000000     0.614730000000     0.950250000000     0.0311086  
C110     C      0.133960000000     0.582860000000     0.040620000000    -0.0319895  
C111     C      0.135430000000     0.652180000000     0.955290000000     0.0399629  
C112     C      0.168010000000     0.619120000000     0.043550000000     0.208524   
C113     C      0.556320000000     0.421760000000     0.000380000000     0.398269   
C114     C      0.935220000000     0.049010000000     0.007740000000     0.383675   
C115     C      0.565320000000     0.048900000000     0.997100000000     0.425947   
C116     C      0.926590000000     0.421920000000     0.010830000000     0.423751   
C117     C      0.555060000000     0.428520000000     0.509120000000     0.395316   
C118     C      0.929870000000     0.051690000000     0.503340000000     0.383918   
C119     C      0.559220000000     0.056140000000     0.508870000000     0.422009   
C120     C      0.925860000000     0.423280000000     0.503680000000     0.43478    
C121     C      0.749970000000     0.234450000000     0.887920000000     0.466077   
C122     C      0.738740000000     0.238110000000     0.128090000000     0.466016   
C123     C      0.806390000000     0.176520000000     0.012680000000     0.450414   
C124     C      0.685200000000     0.294080000000     0.001600000000     0.432463   
C125     C      0.738920000000     0.241290000000     0.388310000000     0.476461   
C126     C      0.748570000000     0.238620000000     0.627980000000     0.474583   
C127     C      0.802010000000     0.180400000000     0.502800000000     0.447318   
C128     C      0.683150000000     0.300040000000     0.511870000000     0.436954   
C129     C      0.724180000000     0.203140000000     0.789830000000     0.0275429  
C130     C      0.779650000000     0.267720000000     0.792040000000    -0.0295785  
C131     C      0.724230000000     0.204150000000     0.724580000000     0.0375842  
C132     C      0.779020000000     0.269590000000     0.726320000000     0.202558   
C133     C      0.704480000000     0.212420000000     0.226030000000     0.0263904  
C134     C      0.768750000000     0.268480000000     0.224340000000    -0.0300869  
C135     C      0.704800000000     0.213730000000     0.291810000000     0.0385036  
C136     C      0.769900000000     0.269280000000     0.289590000000     0.205963   
C137     C      0.613020000000     0.327000000000     0.549040000000     0.0259695  
C138     C      0.658300000000     0.369910000000     0.474400000000    -0.0278107  
C139     C      0.582150000000     0.360730000000     0.550510000000     0.0326053  
C140     C      0.625310000000     0.401560000000     0.471560000000     0.199977   
C141     C      0.821820000000     0.353410000000     0.546320000000     0.0285168  
C142     C      0.857070000000     0.317980000000     0.462500000000    -0.0280406  
C143     C      0.857460000000     0.388130000000     0.546610000000     0.0484238  
C144     C      0.891890000000     0.353830000000     0.460260000000     0.213266   
C145     C      0.900940000000     0.118470000000     0.544830000000     0.0224262  
C146     C      0.863470000000     0.081390000000     0.458700000000    -0.0310949  
C147     C      0.870090000000     0.152040000000     0.542490000000     0.0376293  
C148     C      0.829720000000     0.112500000000     0.460100000000     0.201845   
C149     C      0.622130000000     0.097910000000     0.459690000000     0.0322968  
C150     C      0.598830000000     0.118290000000     0.561440000000    -0.0319614  
C151     C      0.657580000000     0.132870000000     0.461410000000     0.0371721  
C152     C      0.632370000000     0.155290000000     0.561030000000     0.209167   
C153     C      0.658600000000     0.363440000000     0.037940000000     0.0259007  
C154     C      0.615540000000     0.320240000000     0.961450000000    -0.0254581  
C155     C      0.624890000000     0.394200000000     0.039560000000     0.0341459  
C156     C      0.584130000000     0.353600000000     0.958380000000     0.198535   
C157     C      0.860060000000     0.383010000000     0.966450000000     0.0350607  
C158     C      0.889190000000     0.358570000000     0.063000000000    -0.0305409  
C159     C      0.825840000000     0.346880000000     0.967740000000     0.0367474  
C160     C      0.856930000000     0.320570000000     0.061710000000     0.213861   
C161     C      0.869000000000     0.080020000000     0.965800000000     0.0236865  
C162     C      0.904840000000     0.113100000000     0.055750000000    -0.0312768  
C163     C      0.835280000000     0.110710000000     0.969160000000     0.0420504  
C164     C      0.873540000000     0.146540000000     0.055940000000     0.204417   
C165     C      0.602690000000     0.114720000000     0.950250000000     0.031137   
C166     C      0.633960000000     0.082860000000     0.040620000000    -0.0319518  
C167     C      0.635430000000     0.152180000000     0.955290000000     0.0399649  
C168     C      0.668010000000     0.119120000000     0.043550000000     0.208472   
C169     C      0.556320000000     0.921760000000     0.000380000000     0.398199   
C170     C      0.935220000000     0.549010000000     0.007740000000     0.3838     
C171     C      0.565320000000     0.548900000000     0.997100000000     0.426028   
C172     C      0.926590000000     0.921920000000     0.010830000000     0.42359    
C173     C      0.555060000000     0.928520000000     0.509120000000     0.395239   
C174     C      0.929870000000     0.551690000000     0.503340000000     0.383976   
C175     C      0.559220000000     0.556140000000     0.508870000000     0.422093   
C176     C      0.925860000000     0.923280000000     0.503680000000     0.434781   
C177     C      0.749970000000     0.734460000000     0.887920000000     0.465938   
C178     C      0.738730000000     0.738110000000     0.128090000000     0.466002   
C179     C      0.806400000000     0.676520000000     0.012680000000     0.450222   
C180     C      0.685200000000     0.794080000000     0.001600000000     0.432587   
C181     C      0.738920000000     0.741290000000     0.388310000000     0.476763   
C182     C      0.748570000000     0.738620000000     0.627980000000     0.474667   
C183     C      0.802010000000     0.680400000000     0.502800000000     0.447321   
C184     C      0.683150000000     0.800050000000     0.511870000000     0.436864   
C185     C      0.724180000000     0.703140000000     0.789830000000     0.0275447  
C186     C      0.779650000000     0.767720000000     0.792040000000    -0.0296168  
C187     C      0.724230000000     0.704150000000     0.724580000000     0.0375569  
C188     C      0.779030000000     0.769590000000     0.726320000000     0.202601   
C189     C      0.704490000000     0.712410000000     0.226030000000     0.0264289  
C190     C      0.768750000000     0.768480000000     0.224340000000    -0.0301199  
C191     C      0.704800000000     0.713720000000     0.291810000000     0.0384425  
C192     C      0.769900000000     0.769280000000     0.289590000000     0.205986   
C193     C      0.613020000000     0.827000000000     0.549040000000     0.0259553  
C194     C      0.658300000000     0.869910000000     0.474400000000    -0.0278249  
C195     C      0.582150000000     0.860730000000     0.550510000000     0.0326388  
C196     C      0.625310000000     0.901560000000     0.471560000000     0.199962   
C197     C      0.821820000000     0.853410000000     0.546320000000     0.0285158  
C198     C      0.857070000000     0.817980000000     0.462500000000    -0.0280587  
C199     C      0.857460000000     0.888130000000     0.546610000000     0.0483671  
C200     C      0.891890000000     0.853830000000     0.460260000000     0.213278   
C201     C      0.900950000000     0.618470000000     0.544830000000     0.0224098  
C202     C      0.863470000000     0.581390000000     0.458700000000    -0.0310752  
C203     C      0.870090000000     0.652040000000     0.542490000000     0.0376255  
C204     C      0.829710000000     0.612500000000     0.460100000000     0.201779   
C205     C      0.622130000000     0.597910000000     0.459690000000     0.0322764  
C206     C      0.598830000000     0.618290000000     0.561440000000    -0.031978   
C207     C      0.657580000000     0.632870000000     0.461410000000     0.0371444  
C208     C      0.632370000000     0.655290000000     0.561030000000     0.209153   
C209     C      0.658600000000     0.863440000000     0.037940000000     0.0259075  
C210     C      0.615540000000     0.820240000000     0.961450000000    -0.0254816  
C211     C      0.624890000000     0.894200000000     0.039560000000     0.0341159  
C212     C      0.584120000000     0.853600000000     0.958380000000     0.198598   
C213     C      0.860060000000     0.883010000000     0.966450000000     0.0350382  
C214     C      0.889200000000     0.858570000000     0.063000000000    -0.0305947  
C215     C      0.825840000000     0.846880000000     0.967740000000     0.0367397  
C216     C      0.856930000000     0.820570000000     0.061710000000     0.213889   
C217     C      0.869000000000     0.580020000000     0.965800000000     0.0236763  
C218     C      0.904850000000     0.613100000000     0.055750000000    -0.0313256  
C219     C      0.835280000000     0.610710000000     0.969160000000     0.0420196  
C220     C      0.873540000000     0.646540000000     0.055940000000     0.204425   
C221     C      0.602690000000     0.614730000000     0.950250000000     0.031088   
C222     C      0.633960000000     0.582860000000     0.040620000000    -0.0320006  
C223     C      0.635430000000     0.652180000000     0.955290000000     0.0399361  
C224     C      0.668010000000     0.619120000000     0.043550000000     0.208506   
Cu1      Cu     0.492470000000     0.984580000000     0.946220000000     0.850584   
Cu2      Cu     0.999260000000     0.486480000000     0.061490000000     0.86261    
Cu3      Cu     0.493830000000     0.989610000000     0.448610000000     0.859512   
Cu4      Cu     0.990780000000     0.490220000000     0.563790000000     0.849938   
Cu5      Cu     0.279880000000     0.268750000000     0.012350000000     1.13575    
Cu6      Cu     0.211570000000     0.201630000000     0.004010000000     1.12313    
Cu7      Cu     0.276650000000     0.273110000000     0.507080000000     1.12801    
Cu8      Cu     0.208380000000     0.207140000000     0.509480000000     1.10803    
Cu9      Cu     0.492480000000     0.484580000000     0.946220000000     0.851205   
Cu10     Cu     0.999260000000     0.986480000000     0.061490000000     0.861944   
Cu11     Cu     0.493830000000     0.489610000000     0.448610000000     0.860078   
Cu12     Cu     0.990780000000     0.990220000000     0.563790000000     0.849298   
Cu13     Cu     0.279880000000     0.768750000000     0.012350000000     1.13575    
Cu14     Cu     0.211570000000     0.701630000000     0.004010000000     1.1231     
Cu15     Cu     0.276650000000     0.773110000000     0.507080000000     1.12802    
Cu16     Cu     0.208380000000     0.707140000000     0.509480000000     1.10801    
Cu17     Cu     0.992480000000     0.984580000000     0.946220000000     0.849822   
Cu18     Cu     0.499260000000     0.486480000000     0.061490000000     0.863365   
Cu19     Cu     0.993830000000     0.989610000000     0.448610000000     0.858692   
Cu20     Cu     0.490780000000     0.490220000000     0.563790000000     0.850694   
Cu21     Cu     0.779880000000     0.268750000000     0.012350000000     1.13575    
Cu22     Cu     0.711570000000     0.201630000000     0.004010000000     1.12297    
Cu23     Cu     0.776650000000     0.273110000000     0.507080000000     1.12801    
Cu24     Cu     0.708370000000     0.207140000000     0.509480000000     1.10805    
Cu25     Cu     0.992470000000     0.484580000000     0.946220000000     0.850402   
Cu26     Cu     0.499260000000     0.986480000000     0.061490000000     0.862717   
Cu27     Cu     0.993830000000     0.489610000000     0.448610000000     0.859329   
Cu28     Cu     0.490770000000     0.990220000000     0.563790000000     0.849993   
Cu29     Cu     0.779880000000     0.768750000000     0.012350000000     1.13563    
Cu30     Cu     0.711570000000     0.701630000000     0.004010000000     1.12311    
Cu31     Cu     0.776650000000     0.773110000000     0.507080000000     1.12802    
Cu32     Cu     0.708380000000     0.707140000000     0.509480000000     1.108      
H1       H      0.201800000000     0.177880000000     0.700560000000     0.0513122  
H2       H      0.201750000000     0.176200000000     0.812570000000     0.0428182  
H3       H      0.302140000000     0.293450000000     0.817010000000     0.0623073  
H4       H      0.289310000000     0.329630000000     0.694440000000     0.151034   
H5       H      0.178640000000     0.191400000000     0.316380000000     0.0375173  
H6       H      0.178120000000     0.189490000000     0.202840000000     0.0354832  
H7       H      0.294600000000     0.291350000000     0.200080000000     0.0830971  
H8       H      0.330510000000     0.282480000000     0.321510000000     0.156904   
H9       H      0.052790000000     0.355680000000     0.581900000000     0.0358414  
H10      H      0.106360000000     0.297920000000     0.579990000000     0.0348363  
H11      H      0.188200000000     0.375350000000     0.443950000000     0.0679154  
H12      H      0.151330000000     0.462170000000     0.455590000000     0.153087   
H13      H      0.356310000000     0.415520000000     0.580180000000     0.0362617  
H14      H      0.293480000000     0.353890000000     0.578790000000     0.0356009  
H15      H      0.357470000000     0.289350000000     0.431140000000     0.0581233  
H16      H      0.450580000000     0.336630000000     0.439340000000     0.152228   
H17      H      0.374640000000     0.179570000000     0.576270000000     0.0387303  
H18      H      0.428110000000     0.122120000000     0.579740000000     0.0396696  
H19      H      0.359800000000     0.054290000000     0.424230000000     0.0647449  
H20      H      0.305940000000     0.125350000000     0.380500000000     0.150036   
H21      H      0.181730000000     0.137340000000     0.422980000000     0.0370951  
H22      H      0.119030000000     0.075730000000     0.419080000000     0.0417808  
H23      H      0.075730000000     0.113500000000     0.601320000000     0.0626342  
H24      H      0.114180000000     0.208000000000     0.599350000000     0.154939   
H25      H      0.129940000000     0.422500000000     0.072100000000     0.0387022  
H26      H      0.187630000000     0.369230000000     0.069800000000     0.0434098  
H27      H      0.110050000000     0.291070000000     0.930430000000     0.0615316  
H28      H      0.059220000000     0.362100000000     0.878140000000     0.155701   
H29      H      0.299710000000     0.343610000000     0.931670000000     0.0284658  
H30      H      0.360530000000     0.407130000000     0.928110000000     0.0384497  
H31      H      0.414260000000     0.362030000000     0.100750000000     0.0681969  
H32      H      0.380030000000     0.268010000000     0.092910000000     0.174125   
H33      H      0.308180000000     0.107950000000     0.934140000000     0.0379388  
H34      H      0.365840000000     0.054670000000     0.928910000000     0.0404846  
H35      H      0.431370000000     0.114970000000     0.091520000000     0.0641514  
H36      H      0.358120000000     0.165760000000     0.136900000000     0.154948   
H37      H      0.135660000000     0.179790000000     0.922090000000     0.0342787  
H38      H      0.076900000000     0.114050000000     0.913570000000     0.0390032  
H39      H      0.134260000000     0.055600000000     0.074630000000     0.0625043  
H40      H      0.190140000000     0.129480000000     0.126120000000     0.156088   
H41      H      0.201800000000     0.677880000000     0.700560000000     0.0512929  
H42      H      0.201750000000     0.676200000000     0.812570000000     0.042802   
H43      H      0.302140000000     0.793450000000     0.817010000000     0.0622984  
H44      H      0.289310000000     0.829640000000     0.694440000000     0.150932   
H45      H      0.178640000000     0.691400000000     0.316380000000     0.0375162  
H46      H      0.178120000000     0.689490000000     0.202840000000     0.0354713  
H47      H      0.294600000000     0.791350000000     0.200080000000     0.0830935  
H48      H      0.330510000000     0.782480000000     0.321510000000     0.156902   
H49      H      0.052790000000     0.855680000000     0.581900000000     0.0358258  
H50      H      0.106360000000     0.797920000000     0.579990000000     0.0348318  
H51      H      0.188200000000     0.875350000000     0.443950000000     0.0678908  
H52      H      0.151330000000     0.962170000000     0.455590000000     0.152938   
H53      H      0.356310000000     0.915520000000     0.580180000000     0.0361973  
H54      H      0.293480000000     0.853890000000     0.578790000000     0.0355868  
H55      H      0.357470000000     0.789350000000     0.431140000000     0.0581189  
H56      H      0.450580000000     0.836630000000     0.439340000000     0.15223    
H57      H      0.374640000000     0.679570000000     0.576270000000     0.0387229  
H58      H      0.428110000000     0.622120000000     0.579740000000     0.0396489  
H59      H      0.359800000000     0.554290000000     0.424230000000     0.064668   
H60      H      0.305940000000     0.625350000000     0.380500000000     0.150024   
H61      H      0.181730000000     0.637340000000     0.422980000000     0.0370775  
H62      H      0.119030000000     0.575730000000     0.419080000000     0.0417125  
H63      H      0.075730000000     0.613500000000     0.601320000000     0.0626053  
H64      H      0.114180000000     0.708000000000     0.599350000000     0.154936   
H65      H      0.129940000000     0.922500000000     0.072100000000     0.0386382  
H66      H      0.187630000000     0.869230000000     0.069800000000     0.0433805  
H67      H      0.110050000000     0.791070000000     0.930430000000     0.0615312  
H68      H      0.059210000000     0.862100000000     0.878140000000     0.155711   
H69      H      0.299710000000     0.843620000000     0.931670000000     0.0284447  
H70      H      0.360530000000     0.907120000000     0.928110000000     0.0383985  
H71      H      0.414260000000     0.862030000000     0.100750000000     0.0681815  
H72      H      0.380030000000     0.768010000000     0.092910000000     0.174126   
H73      H      0.308180000000     0.607950000000     0.934140000000     0.0379072  
H74      H      0.365840000000     0.554670000000     0.928910000000     0.0404054  
H75      H      0.431370000000     0.614970000000     0.091520000000     0.0641337  
H76      H      0.358120000000     0.665760000000     0.136900000000     0.154929   
H77      H      0.135660000000     0.679790000000     0.922090000000     0.0342739  
H78      H      0.076900000000     0.614050000000     0.913570000000     0.038995   
H79      H      0.134260000000     0.555600000000     0.074630000000     0.0624256  
H80      H      0.190140000000     0.629470000000     0.126120000000     0.156107   
H81      H      0.701810000000     0.177880000000     0.700560000000     0.051296   
H82      H      0.701750000000     0.176200000000     0.812570000000     0.0428081  
H83      H      0.802140000000     0.293450000000     0.817010000000     0.0622866  
H84      H      0.789310000000     0.329630000000     0.694440000000     0.151027   
H85      H      0.678640000000     0.191400000000     0.316380000000     0.0374971  
H86      H      0.678120000000     0.189490000000     0.202840000000     0.0354537  
H87      H      0.794600000000     0.291350000000     0.200080000000     0.0830848  
H88      H      0.830510000000     0.282480000000     0.321510000000     0.156964   
H89      H      0.552790000000     0.355680000000     0.581900000000     0.0357442  
H90      H      0.606360000000     0.297920000000     0.579990000000     0.0347966  
H91      H      0.688200000000     0.375350000000     0.443950000000     0.0679116  
H92      H      0.651320000000     0.462170000000     0.455590000000     0.15313    
H93      H      0.856310000000     0.415520000000     0.580180000000     0.0362443  
H94      H      0.793480000000     0.353890000000     0.578790000000     0.0355992  
H95      H      0.857470000000     0.289350000000     0.431140000000     0.0581054  
H96      H      0.950580000000     0.336630000000     0.439340000000     0.152127   
H97      H      0.874640000000     0.179570000000     0.576270000000     0.0386971  
H98      H      0.928100000000     0.122120000000     0.579740000000     0.0395971  
H99      H      0.859800000000     0.054290000000     0.424230000000     0.0647505  
H100     H      0.805940000000     0.125350000000     0.380500000000     0.150069   
H101     H      0.681730000000     0.137340000000     0.422980000000     0.0370797  
H102     H      0.619030000000     0.075730000000     0.419080000000     0.041746   
H103     H      0.575730000000     0.113500000000     0.601320000000     0.0625552  
H104     H      0.614180000000     0.208000000000     0.599350000000     0.154891   
H105     H      0.629940000000     0.422500000000     0.072100000000     0.038676   
H106     H      0.687630000000     0.369230000000     0.069800000000     0.043408   
H107     H      0.610050000000     0.291070000000     0.930430000000     0.0614977  
H108     H      0.559220000000     0.362100000000     0.878140000000     0.155643   
H109     H      0.799710000000     0.343610000000     0.931670000000     0.0284616  
H110     H      0.860530000000     0.407130000000     0.928110000000     0.038443   
H111     H      0.914260000000     0.362030000000     0.100750000000     0.0681337  
H112     H      0.880040000000     0.268010000000     0.092910000000     0.174009   
H113     H      0.808180000000     0.107950000000     0.934140000000     0.0379356  
H114     H      0.865830000000     0.054670000000     0.928910000000     0.0404687  
H115     H      0.931380000000     0.114970000000     0.091520000000     0.0640729  
H116     H      0.858120000000     0.165760000000     0.136900000000     0.154992   
H117     H      0.635660000000     0.179790000000     0.922090000000     0.0342443  
H118     H      0.576900000000     0.114050000000     0.913570000000     0.038928   
H119     H      0.634260000000     0.055600000000     0.074630000000     0.0624758  
H120     H      0.690140000000     0.129480000000     0.126120000000     0.156068   
H121     H      0.701800000000     0.677880000000     0.700560000000     0.0512815  
H122     H      0.701750000000     0.676200000000     0.812570000000     0.0427896  
H123     H      0.802140000000     0.793450000000     0.817010000000     0.0622835  
H124     H      0.789310000000     0.829640000000     0.694440000000     0.15094    
H125     H      0.678650000000     0.691400000000     0.316380000000     0.0374971  
H126     H      0.678130000000     0.689490000000     0.202840000000     0.0354311  
H127     H      0.794600000000     0.791350000000     0.200080000000     0.0830811  
H128     H      0.830520000000     0.782480000000     0.321510000000     0.156804   
H129     H      0.552780000000     0.855680000000     0.581900000000     0.0357265  
H130     H      0.606360000000     0.797920000000     0.579990000000     0.0347939  
H131     H      0.688200000000     0.875350000000     0.443950000000     0.0678785  
H132     H      0.651330000000     0.962170000000     0.455590000000     0.15289    
H133     H      0.856310000000     0.915520000000     0.580180000000     0.0362014  
H134     H      0.793480000000     0.853890000000     0.578790000000     0.0355805  
H135     H      0.857470000000     0.789350000000     0.431140000000     0.0581043  
H136     H      0.950580000000     0.836630000000     0.439340000000     0.152135   
H137     H      0.874640000000     0.679570000000     0.576270000000     0.0386856  
H138     H      0.928110000000     0.622120000000     0.579740000000     0.0395757  
H139     H      0.859800000000     0.554290000000     0.424230000000     0.0646572  
H140     H      0.805940000000     0.625350000000     0.380500000000     0.150022   
H141     H      0.681730000000     0.637340000000     0.422980000000     0.0370712  
H142     H      0.619030000000     0.575730000000     0.419080000000     0.0416769  
H143     H      0.575730000000     0.613500000000     0.601320000000     0.0625272  
H144     H      0.614180000000     0.708000000000     0.599350000000     0.154889   
H145     H      0.629940000000     0.922500000000     0.072100000000     0.0386138  
H146     H      0.687630000000     0.869230000000     0.069800000000     0.0433713  
H147     H      0.610050000000     0.791070000000     0.930430000000     0.061496   
H148     H      0.559210000000     0.862100000000     0.878140000000     0.155665   
H149     H      0.799710000000     0.843620000000     0.931670000000     0.0284452  
H150     H      0.860530000000     0.907120000000     0.928110000000     0.0383831  
H151     H      0.914260000000     0.862030000000     0.100750000000     0.0681382  
H152     H      0.880030000000     0.768010000000     0.092910000000     0.174089   
H153     H      0.808180000000     0.607950000000     0.934140000000     0.0379019  
H154     H      0.865840000000     0.554670000000     0.928910000000     0.0403942  
H155     H      0.931370000000     0.614970000000     0.091520000000     0.0640715  
H156     H      0.858120000000     0.665760000000     0.136900000000     0.154922   
H157     H      0.635660000000     0.679790000000     0.922090000000     0.03425    
H158     H      0.576900000000     0.614050000000     0.913570000000     0.0389158  
H159     H      0.634260000000     0.555600000000     0.074630000000     0.0623999  
H160     H      0.690140000000     0.629470000000     0.126120000000     0.156089   
N1       N      0.251610000000     0.235070000000     0.823650000000    -0.175833   
N2       N      0.250920000000     0.237660000000     0.692420000000    -0.210562   
N3       N      0.236860000000     0.239510000000     0.192400000000    -0.172902   
N4       N      0.237900000000     0.241580000000     0.323780000000    -0.213005   
N5       N      0.151710000000     0.332010000000     0.511910000000    -0.168207   
N6       N      0.087330000000     0.397330000000     0.510460000000    -0.195447   
N7       N      0.322860000000     0.318980000000     0.504970000000    -0.234307   
N8       N      0.391800000000     0.388480000000     0.503020000000    -0.212279   
N9       N      0.398390000000     0.083610000000     0.502090000000    -0.157702   
N10      N      0.333550000000     0.148500000000     0.501550000000    -0.205301   
N11      N      0.093510000000     0.090650000000     0.510120000000    -0.171494   
N12      N      0.161600000000     0.161150000000     0.511460000000    -0.270824   
N13      N      0.153410000000     0.325680000000     0.000130000000    -0.168583   
N14      N      0.088130000000     0.390120000000     0.998920000000    -0.193926   
N15      N      0.391500000000     0.388310000000     0.014030000000    -0.171521   
N16      N      0.325690000000     0.315790000000     0.014220000000    -0.273876   
N17      N      0.403360000000     0.080520000000     0.009800000000    -0.158064   
N18      N      0.338230000000     0.144960000000     0.012850000000    -0.206073   
N19      N      0.101170000000     0.081650000000     0.994870000000    -0.171313   
N20      N      0.166940000000     0.153780000000     0.002170000000    -0.273889   
N21      N      0.251610000000     0.735070000000     0.823650000000    -0.17581    
N22      N      0.250920000000     0.737660000000     0.692420000000    -0.21056    
N23      N      0.236860000000     0.739500000000     0.192400000000    -0.172901   
N24      N      0.237900000000     0.741580000000     0.323780000000    -0.212995   
N25      N      0.151710000000     0.832010000000     0.511910000000    -0.16824    
N26      N      0.087330000000     0.897320000000     0.510460000000    -0.195427   
N27      N      0.322860000000     0.818980000000     0.504970000000    -0.234309   
N28      N      0.391790000000     0.888480000000     0.503020000000    -0.212245   
N29      N      0.398390000000     0.583610000000     0.502090000000    -0.157731   
N30      N      0.333550000000     0.648500000000     0.501550000000    -0.205304   
N31      N      0.093510000000     0.590650000000     0.510120000000    -0.171528   
N32      N      0.161600000000     0.661150000000     0.511460000000    -0.270824   
N33      N      0.153410000000     0.825680000000     0.000130000000    -0.168584   
N34      N      0.088130000000     0.890120000000     0.998920000000    -0.193933   
N35      N      0.391500000000     0.888310000000     0.014030000000    -0.17152    
N36      N      0.325690000000     0.815790000000     0.014220000000    -0.273879   
N37      N      0.403360000000     0.580510000000     0.009800000000    -0.15813    
N38      N      0.338230000000     0.644960000000     0.012850000000    -0.206075   
N39      N      0.101170000000     0.581650000000     0.994870000000    -0.171328   
N40      N      0.166940000000     0.653780000000     0.002170000000    -0.27389    
N41      N      0.751610000000     0.235070000000     0.823650000000    -0.175836   
N42      N      0.750910000000     0.237660000000     0.692420000000    -0.21054    
N43      N      0.736860000000     0.239510000000     0.192400000000    -0.172907   
N44      N      0.737900000000     0.241580000000     0.323780000000    -0.212944   
N45      N      0.651710000000     0.332010000000     0.511910000000    -0.168214   
N46      N      0.587330000000     0.397330000000     0.510460000000    -0.195487   
N47      N      0.822860000000     0.318980000000     0.504970000000    -0.234308   
N48      N      0.891790000000     0.388480000000     0.503020000000    -0.212238   
N49      N      0.898390000000     0.083610000000     0.502090000000    -0.157697   
N50      N      0.833550000000     0.148500000000     0.501550000000    -0.205319   
N51      N      0.593510000000     0.090650000000     0.510120000000    -0.171532   
N52      N      0.661600000000     0.161150000000     0.511460000000    -0.270882   
N53      N      0.653400000000     0.325680000000     0.000130000000    -0.168525   
N54      N      0.588130000000     0.390120000000     0.998920000000    -0.193949   
N55      N      0.891500000000     0.388310000000     0.014030000000    -0.171526   
N56      N      0.825690000000     0.315790000000     0.014220000000    -0.273872   
N57      N      0.903360000000     0.080520000000     0.009800000000    -0.158071   
N58      N      0.838220000000     0.144960000000     0.012850000000    -0.20606    
N59      N      0.601170000000     0.081650000000     0.994870000000    -0.171349   
N60      N      0.666930000000     0.153780000000     0.002170000000    -0.273835   
N61      N      0.751610000000     0.735070000000     0.823650000000    -0.175808   
N62      N      0.750920000000     0.737660000000     0.692420000000    -0.210554   
N63      N      0.736860000000     0.739500000000     0.192400000000    -0.172918   
N64      N      0.737900000000     0.741580000000     0.323780000000    -0.212987   
N65      N      0.651710000000     0.832010000000     0.511910000000    -0.168242   
N66      N      0.587330000000     0.897320000000     0.510460000000    -0.195467   
N67      N      0.822860000000     0.818980000000     0.504970000000    -0.234314   
N68      N      0.891800000000     0.888480000000     0.503020000000    -0.212273   
N69      N      0.898390000000     0.583610000000     0.502090000000    -0.157735   
N70      N      0.833550000000     0.648500000000     0.501550000000    -0.205321   
N71      N      0.593510000000     0.590650000000     0.510120000000    -0.171568   
N72      N      0.661600000000     0.661150000000     0.511460000000    -0.270824   
N73      N      0.653410000000     0.825680000000     0.000130000000    -0.168587   
N74      N      0.588130000000     0.890120000000     0.998920000000    -0.193966   
N75      N      0.891490000000     0.888310000000     0.014030000000    -0.171478   
N76      N      0.825690000000     0.815790000000     0.014220000000    -0.273866   
N77      N      0.903360000000     0.580510000000     0.009800000000    -0.158136   
N78      N      0.838230000000     0.644960000000     0.012850000000    -0.206059   
N79      N      0.601170000000     0.581650000000     0.994870000000    -0.171369   
N80      N      0.666940000000     0.653780000000     0.002170000000    -0.273893   
O1       O      0.038060000000     0.435030000000     0.949410000000    -0.369435   
O2       O      0.446110000000     0.032090000000     0.954920000000    -0.37667    
O3       O      0.045280000000     0.034470000000     0.946450000000    -0.408345   
O4       O      0.440040000000     0.436700000000     0.957030000000    -0.409442   
O5       O      0.446480000000     0.437080000000     0.061220000000    -0.408004   
O6       O      0.051710000000     0.033900000000     0.050680000000    -0.416623   
O7       O      0.453840000000     0.035960000000     0.058540000000    -0.374687   
O8       O      0.045420000000     0.438840000000     0.053060000000    -0.379137   
O9       O      0.044640000000     0.446580000000     0.456880000000    -0.363363   
O10      O      0.442340000000     0.033130000000     0.452270000000    -0.372613   
O11      O      0.042660000000     0.042040000000     0.456060000000    -0.409032   
O12      O      0.445790000000     0.436200000000     0.452490000000    -0.396973   
O13      O      0.437200000000     0.442630000000     0.555780000000    -0.414801   
O14      O      0.043860000000     0.038640000000     0.560500000000    -0.410042   
O15      O      0.447190000000     0.040450000000     0.555820000000    -0.377103   
O16      O      0.035150000000     0.439710000000     0.559930000000    -0.377923   
O17      O      0.277260000000     0.261740000000     0.920510000000    -0.463932   
O18      O      0.269090000000     0.264350000000     0.099830000000    -0.45309    
O19      O      0.318750000000     0.218440000000     0.024360000000    -0.428142   
O20      O      0.227470000000     0.306370000000     0.015310000000    -0.436336   
O21      O      0.172800000000     0.251990000000     0.990420000000    -0.4317     
O22      O      0.264180000000     0.164420000000     0.999160000000    -0.427782   
O23      O      0.211350000000     0.210490000000     0.096110000000    -0.454046   
O24      O      0.220310000000     0.206900000000     0.915540000000    -0.463536   
O25      O      0.272380000000     0.262700000000     0.417790000000    -0.457103   
O26      O      0.269690000000     0.271160000000     0.597190000000    -0.456893   
O27      O      0.315100000000     0.222080000000     0.515560000000    -0.438611   
O28      O      0.225510000000     0.311660000000     0.498520000000    -0.436332   
O29      O      0.170440000000     0.258190000000     0.524040000000    -0.434101   
O30      O      0.259100000000     0.168750000000     0.492580000000    -0.42266    
O31      O      0.224590000000     0.207070000000     0.598130000000    -0.446521   
O32      O      0.206780000000     0.219180000000     0.419560000000    -0.459228   
O33      O      0.307620000000     0.303470000000     0.697420000000    -0.281724   
O34      O      0.303110000000     0.299270000000     0.317780000000    -0.276298   
O35      O      0.133220000000     0.437750000000     0.431170000000    -0.279225   
O36      O      0.426970000000     0.352480000000     0.417630000000    -0.279355   
O37      O      0.294330000000     0.107150000000     0.417400000000    -0.282853   
O38      O      0.135490000000     0.185360000000     0.609970000000    -0.297836   
O39      O      0.047760000000     0.346850000000     0.917380000000    -0.283376   
O40      O      0.357450000000     0.288270000000     0.107460000000    -0.292825   
O41      O      0.377710000000     0.179050000000     0.102040000000    -0.287797   
O42      O      0.202890000000     0.118940000000     0.086430000000    -0.297522   
O43      O      0.038060000000     0.935030000000     0.949410000000    -0.369452   
O44      O      0.446110000000     0.532090000000     0.954920000000    -0.376932   
O45      O      0.045280000000     0.534470000000     0.946450000000    -0.408605   
O46      O      0.440040000000     0.936700000000     0.957030000000    -0.409449   
O47      O      0.446480000000     0.937080000000     0.061220000000    -0.407972   
O48      O      0.051710000000     0.533900000000     0.050680000000    -0.416934   
O49      O      0.453840000000     0.535960000000     0.058540000000    -0.374984   
O50      O      0.045420000000     0.938840000000     0.053060000000    -0.379117   
O51      O      0.044640000000     0.946580000000     0.456880000000    -0.363332   
O52      O      0.442340000000     0.533130000000     0.452270000000    -0.372894   
O53      O      0.042660000000     0.542040000000     0.456060000000    -0.409339   
O54      O      0.445790000000     0.936200000000     0.452490000000    -0.396923   
O55      O      0.437200000000     0.942630000000     0.555780000000    -0.414794   
O56      O      0.043860000000     0.538640000000     0.560500000000    -0.410363   
O57      O      0.447190000000     0.540450000000     0.555820000000    -0.377356   
O58      O      0.035150000000     0.939710000000     0.559930000000    -0.377882   
O59      O      0.277260000000     0.761740000000     0.920510000000    -0.463949   
O60      O      0.269090000000     0.764350000000     0.099830000000    -0.453096   
O61      O      0.318750000000     0.718440000000     0.024360000000    -0.42814    
O62      O      0.227470000000     0.806370000000     0.015310000000    -0.436348   
O63      O      0.172800000000     0.751990000000     0.990420000000    -0.431692   
O64      O      0.264180000000     0.664420000000     0.999160000000    -0.427796   
O65      O      0.211350000000     0.710490000000     0.096110000000    -0.454036   
O66      O      0.220300000000     0.706900000000     0.915540000000    -0.463406   
O67      O      0.272380000000     0.762700000000     0.417790000000    -0.457105   
O68      O      0.269690000000     0.771160000000     0.597190000000    -0.456895   
O69      O      0.315100000000     0.722080000000     0.515560000000    -0.438611   
O70      O      0.225510000000     0.811660000000     0.498520000000    -0.436336   
O71      O      0.170440000000     0.758190000000     0.524040000000    -0.434      
O72      O      0.259100000000     0.668750000000     0.492580000000    -0.422673   
O73      O      0.224590000000     0.707070000000     0.598130000000    -0.446528   
O74      O      0.206780000000     0.719180000000     0.419560000000    -0.459223   
O75      O      0.307620000000     0.803470000000     0.697420000000    -0.281639   
O76      O      0.303110000000     0.799270000000     0.317780000000    -0.276319   
O77      O      0.133220000000     0.937740000000     0.431170000000    -0.279244   
O78      O      0.426970000000     0.852480000000     0.417630000000    -0.279365   
O79      O      0.294330000000     0.607150000000     0.417400000000    -0.282903   
O80      O      0.135490000000     0.685360000000     0.609970000000    -0.297847   
O81      O      0.047760000000     0.846850000000     0.917380000000    -0.28341    
O82      O      0.357450000000     0.788270000000     0.107460000000    -0.292832   
O83      O      0.377710000000     0.679050000000     0.102040000000    -0.287797   
O84      O      0.202890000000     0.618940000000     0.086430000000    -0.297597   
O85      O      0.538060000000     0.435030000000     0.949410000000    -0.369809   
O86      O      0.946110000000     0.032090000000     0.954920000000    -0.376598   
O87      O      0.545280000000     0.034470000000     0.946450000000    -0.408668   
O88      O      0.940030000000     0.436700000000     0.957030000000    -0.409422   
O89      O      0.946480000000     0.437080000000     0.061220000000    -0.407972   
O90      O      0.551710000000     0.033900000000     0.050680000000    -0.416991   
O91      O      0.953840000000     0.035960000000     0.058540000000    -0.374655   
O92      O      0.545420000000     0.438840000000     0.053060000000    -0.379488   
O93      O      0.544640000000     0.446580000000     0.456880000000    -0.363706   
O94      O      0.942340000000     0.033130000000     0.452270000000    -0.372564   
O95      O      0.542660000000     0.042040000000     0.456060000000    -0.409411   
O96      O      0.945790000000     0.436200000000     0.452490000000    -0.396907   
O97      O      0.937200000000     0.442630000000     0.555780000000    -0.414732   
O98      O      0.543860000000     0.038640000000     0.560500000000    -0.410348   
O99      O      0.947190000000     0.040450000000     0.555820000000    -0.377049   
O100     O      0.535150000000     0.439710000000     0.559930000000    -0.378274   
O101     O      0.777260000000     0.261740000000     0.920510000000    -0.46394    
O102     O      0.769090000000     0.264350000000     0.099830000000    -0.453089   
O103     O      0.818750000000     0.218440000000     0.024360000000    -0.428161   
O104     O      0.727470000000     0.306370000000     0.015310000000    -0.43631    
O105     O      0.672790000000     0.251990000000     0.990420000000    -0.431599   
O106     O      0.764180000000     0.164420000000     0.999160000000    -0.42787    
O107     O      0.711350000000     0.210490000000     0.096110000000    -0.454039   
O108     O      0.720310000000     0.206900000000     0.915540000000    -0.463523   
O109     O      0.772390000000     0.262700000000     0.417790000000    -0.456966   
O110     O      0.769700000000     0.271160000000     0.597190000000    -0.456837   
O111     O      0.815100000000     0.222080000000     0.515560000000    -0.43861    
O112     O      0.725510000000     0.311660000000     0.498520000000    -0.43635    
O113     O      0.670440000000     0.258190000000     0.524040000000    -0.434184   
O114     O      0.759100000000     0.168750000000     0.492580000000    -0.422611   
O115     O      0.724590000000     0.207070000000     0.598130000000    -0.446486   
O116     O      0.706770000000     0.219180000000     0.419560000000    -0.459112   
O117     O      0.807620000000     0.303470000000     0.697420000000    -0.281736   
O118     O      0.803120000000     0.299270000000     0.317780000000    -0.276356   
O119     O      0.633220000000     0.437750000000     0.431170000000    -0.279314   
O120     O      0.926970000000     0.352480000000     0.417630000000    -0.279387   
O121     O      0.794340000000     0.107150000000     0.417400000000    -0.282947   
O122     O      0.635490000000     0.185360000000     0.609970000000    -0.297851   
O123     O      0.547760000000     0.346850000000     0.917380000000    -0.283447   
O124     O      0.857450000000     0.288270000000     0.107460000000    -0.29274    
O125     O      0.877700000000     0.179050000000     0.102040000000    -0.287879   
O126     O      0.702890000000     0.118940000000     0.086430000000    -0.297509   
O127     O      0.538060000000     0.935030000000     0.949410000000    -0.369748   
O128     O      0.946110000000     0.532090000000     0.954920000000    -0.376943   
O129     O      0.545280000000     0.534470000000     0.946450000000    -0.409021   
O130     O      0.940040000000     0.936700000000     0.957030000000    -0.409341   
O131     O      0.946480000000     0.937080000000     0.061220000000    -0.407898   
O132     O      0.551710000000     0.533900000000     0.050680000000    -0.417314   
O133     O      0.953840000000     0.535960000000     0.058540000000    -0.374965   
O134     O      0.545420000000     0.938840000000     0.053060000000    -0.37946    
O135     O      0.544630000000     0.946580000000     0.456880000000    -0.363711   
O136     O      0.942340000000     0.533130000000     0.452270000000    -0.37286    
O137     O      0.542660000000     0.542040000000     0.456060000000    -0.409718   
O138     O      0.945790000000     0.936200000000     0.452490000000    -0.396881   
O139     O      0.937200000000     0.942630000000     0.555780000000    -0.414711   
O140     O      0.543860000000     0.538640000000     0.560500000000    -0.410725   
O141     O      0.947190000000     0.540450000000     0.555820000000    -0.377338   
O142     O      0.535160000000     0.939710000000     0.559930000000    -0.378188   
O143     O      0.777260000000     0.761740000000     0.920510000000    -0.463943   
O144     O      0.769090000000     0.764350000000     0.099830000000    -0.453024   
O145     O      0.818760000000     0.718440000000     0.024360000000    -0.428047   
O146     O      0.727470000000     0.806370000000     0.015310000000    -0.436332   
O147     O      0.672800000000     0.751990000000     0.990420000000    -0.431711   
O148     O      0.764180000000     0.664420000000     0.999160000000    -0.427783   
O149     O      0.711350000000     0.710490000000     0.096110000000    -0.454094   
O150     O      0.720300000000     0.706900000000     0.915540000000    -0.463408   
O151     O      0.772380000000     0.762700000000     0.417790000000    -0.457104   
O152     O      0.769690000000     0.771160000000     0.597190000000    -0.456897   
O153     O      0.815100000000     0.722080000000     0.515560000000    -0.438625   
O154     O      0.725510000000     0.811660000000     0.498520000000    -0.436335   
O155     O      0.670440000000     0.758190000000     0.524040000000    -0.434016   
O156     O      0.759100000000     0.668750000000     0.492580000000    -0.422673   
O157     O      0.724590000000     0.707070000000     0.598130000000    -0.446527   
O158     O      0.706780000000     0.719180000000     0.419560000000    -0.459235   
O159     O      0.807620000000     0.803470000000     0.697420000000    -0.281696   
O160     O      0.803110000000     0.799270000000     0.317780000000    -0.276231   
O161     O      0.633210000000     0.937740000000     0.431170000000    -0.279235   
O162     O      0.926970000000     0.852480000000     0.417630000000    -0.279407   
O163     O      0.794330000000     0.607150000000     0.417400000000    -0.28295    
O164     O      0.635490000000     0.685360000000     0.609970000000    -0.297857   
O165     O      0.547760000000     0.846850000000     0.917380000000    -0.283534   
O166     O      0.857450000000     0.788270000000     0.107460000000    -0.292839   
O167     O      0.877710000000     0.679050000000     0.102040000000    -0.287831   
O168     O      0.702890000000     0.618940000000     0.086430000000    -0.297593   


