data_structure

_audit_creation_method RASPA-1.0
_audit_creation_date 2023-5-19
_audit_author_name 'Poobodin Mano'

_cell_length_a    43.2692
_cell_length_b    43.1908
_cell_length_c    43.2488
_cell_angle_alpha 90
_cell_angle_beta  90
_cell_angle_gamma 90
_cell_volume      80824.7

_symmetry_cell_setting          triclinic
_symmetry_space_group_name_Hall 'P 1'
_symmetry_space_group_name_H-M  'P 1'
_symmetry_Int_Tables_number     1

_symmetry_equiv_pos_as_xyz 'x,y,z'

loop_
_atom_site_label
_atom_site_type_symbol
_atom_site_fract_x
_atom_site_fract_y
_atom_site_fract_z
_atom_site_charge
C1       C      0.998230000000     0.060900000000     0.246220000000     0.396824   
C2       C      0.496590000000     0.438250000000     0.249620000000     0.406291   
C3       C      0.058050000000     0.997320000000     0.249180000000     0.407017   
C4       C      0.435570000000     0.499950000000     0.246860000000     0.410246   
C5       C      0.500220000000     0.188110000000     0.244510000000     0.412529   
C6       C      0.497740000000     0.310810000000     0.251030000000     0.404218   
C7       C      0.497440000000     0.252870000000     0.186880000000     0.400297   
C8       C      0.500340000000     0.245910000000     0.309840000000     0.402263   
C9       C      0.308230000000     0.000550000000     0.246040000000     0.402741   
C10      C      0.185340000000     0.497940000000     0.250180000000     0.403444   
C11      C      0.244360000000     0.000900000000     0.186830000000     0.402702   
C12      C      0.249300000000     0.497770000000     0.309770000000     0.403376   
C13      C      0.251820000000     0.060750000000     0.994470000000     0.399455   
C14      C      0.242720000000     0.437800000000     0.502370000000     0.399598   
C15      C      0.244810000000     0.003140000000     0.059640000000     0.410939   
C16      C      0.249590000000     0.495350000000     0.437130000000     0.411195   
C17      C      0.996020000000     0.253860000000     0.059600000000     0.409827   
C18      C      0.500270000000     0.245390000000     0.437080000000     0.408647   
C19      C      0.058740000000     0.245800000000     0.000450000000     0.395221   
C20      C      0.436050000000     0.253490000000     0.495390000000     0.409655   
C21      C      0.253790000000     0.188090000000     0.993670000000     0.409997   
C22      C      0.240870000000     0.310410000000     0.002800000000     0.40603    
C23      C      0.186110000000     0.242910000000     0.999360000000     0.409852   
C24      C      0.308670000000     0.254670000000     0.997010000000     0.402069   
C25      C      0.356790000000     0.241580000000     0.019400000000     0.0226811  
C26      C      0.355740000000     0.269830000000     0.472710000000    -0.0131936  
C27      C      0.388870000000     0.240340000000     0.017990000000     0.0340357  
C28      C      0.388330000000     0.270450000000     0.472100000000     0.147612   
C29      C      0.106980000000     0.265550000000     0.484370000000     0.0232679  
C30      C      0.105450000000     0.220960000000     0.015830000000    -0.0138788  
C31      C      0.138980000000     0.263550000000     0.482990000000     0.0345916  
C32      C      0.138050000000     0.220050000000     0.016460000000     0.145478   
C33      C      0.262320000000     0.389630000000     0.019990000000     0.02458    
C34      C      0.216790000000     0.390940000000     0.490010000000    -0.0141052  
C35      C      0.260500000000     0.357400000000     0.021460000000     0.0344117  
C36      C      0.216050000000     0.358370000000     0.489360000000     0.147991   
C37      C      0.231990000000     0.108900000000     0.477100000000     0.0245986  
C38      C      0.278030000000     0.107640000000     0.006310000000    -0.0158042  
C39      C      0.233810000000     0.141110000000     0.475500000000     0.0338834  
C40      C      0.278860000000     0.140220000000     0.006750000000     0.146756   
C41      C      0.236040000000     0.519680000000     0.358150000000     0.0258158  
C42      C      0.265020000000     0.473420000000     0.356500000000    -0.0130277  
C43      C      0.235210000000     0.517990000000     0.390260000000     0.0360821  
C44      C      0.266010000000     0.472520000000     0.389030000000     0.148411   
C45      C      0.255430000000     0.477550000000     0.138590000000     0.0260721  
C46      C      0.231340000000     0.026590000000     0.140030000000    -0.0127849  
C47      C      0.256600000000     0.479100000000     0.106480000000     0.036471   
C48      C      0.230420000000     0.027400000000     0.107520000000     0.148244   
C49      C      0.478400000000     0.229850000000     0.357660000000     0.0250434  
C50      C      0.025320000000     0.257710000000     0.357180000000    -0.0130807  
C51      C      0.479690000000     0.228260000000     0.389900000000     0.0342627  
C52      C      0.025880000000     0.257890000000     0.389620000000     0.14942    
C53      C      0.471970000000     0.243470000000     0.139220000000     0.0241598  
C54      C      0.021330000000     0.266750000000     0.139450000000    -0.00965548 
C55      C      0.472410000000     0.242910000000     0.107000000000     0.0359743  
C56      C      0.021150000000     0.268160000000     0.106950000000     0.151598   
C57      C      0.137460000000     0.020230000000     0.235900000000     0.025862   
C58      C      0.138190000000     0.473430000000     0.264070000000    -0.0127035  
C59      C      0.105350000000     0.018950000000     0.234520000000     0.0345363  
C60      C      0.105680000000     0.473020000000     0.264690000000     0.146122   
C61      C      0.356120000000     0.024110000000     0.259110000000     0.0259057  
C62      C      0.355470000000     0.476780000000     0.231870000000    -0.0134027  
C63      C      0.388310000000     0.022700000000     0.260640000000     0.0348801  
C64      C      0.387890000000     0.475850000000     0.231920000000     0.148431   
C65      C      0.974140000000     0.358670000000     0.264660000000     0.0246393  
C66      C      0.021290000000     0.358180000000     0.237210000000    -0.0102306  
C67      C      0.975060000000     0.390970000000     0.265460000000     0.0320526  
C68      C      0.021630000000     0.390590000000     0.236380000000     0.149263   
C69      C      0.014950000000     0.108800000000     0.267110000000     0.0302415  
C70      C      0.484700000000     0.108010000000     0.221660000000    -0.0137033  
C71      C      0.016820000000     0.140950000000     0.265270000000     0.0356212  
C72      C      0.484800000000     0.140480000000     0.220680000000     0.149174   
C73      C      0.998230000000     0.060900000000     0.746220000000     0.396824   
C74      C      0.496590000000     0.438250000000     0.749620000000     0.406283   
C75      C      0.058050000000     0.997320000000     0.749180000000     0.407016   
C76      C      0.435570000000     0.499950000000     0.746860000000     0.410243   
C77      C      0.500220000000     0.188110000000     0.744510000000     0.412537   
C78      C      0.497740000000     0.310810000000     0.751030000000     0.404227   
C79      C      0.497440000000     0.252870000000     0.686880000000     0.400307   
C80      C      0.500340000000     0.245910000000     0.809840000000     0.402203   
C81      C      0.308230000000     0.000550000000     0.746040000000     0.402737   
C82      C      0.185340000000     0.497940000000     0.750180000000     0.403454   
C83      C      0.244360000000     0.000900000000     0.686830000000     0.402702   
C84      C      0.249300000000     0.497770000000     0.809770000000     0.403383   
C85      C      0.251820000000     0.060750000000     0.494470000000     0.399416   
C86      C      0.242720000000     0.437800000000     0.002370000000     0.397295   
C87      C      0.244810000000     0.003140000000     0.559640000000     0.411039   
C88      C      0.249590000000     0.495350000000     0.937130000000     0.411173   
C89      C      0.996020000000     0.253860000000     0.559600000000     0.409806   
C90      C      0.500270000000     0.245390000000     0.937080000000     0.408548   
C91      C      0.058740000000     0.245800000000     0.500450000000     0.397447   
C92      C      0.436050000000     0.253490000000     0.995390000000     0.40965    
C93      C      0.253790000000     0.188090000000     0.493670000000     0.407688   
C94      C      0.240870000000     0.310410000000     0.502800000000     0.408307   
C95      C      0.186110000000     0.242910000000     0.499360000000     0.407583   
C96      C      0.308670000000     0.254670000000     0.497010000000     0.399736   
C97      C      0.356790000000     0.241580000000     0.519400000000     0.023895   
C98      C      0.355740000000     0.269830000000     0.972710000000    -0.0128031  
C99      C      0.388870000000     0.240340000000     0.517990000000     0.0355367  
C100     C      0.388330000000     0.270450000000     0.972100000000     0.147878   
C101     C      0.106980000000     0.265550000000     0.984370000000     0.0251193  
C102     C      0.105450000000     0.220960000000     0.515830000000    -0.0139739  
C103     C      0.138980000000     0.263550000000     0.982990000000     0.0344231  
C104     C      0.138050000000     0.220050000000     0.516460000000     0.147137   
C105     C      0.262320000000     0.389630000000     0.519980000000     0.0250197  
C106     C      0.216790000000     0.390940000000     0.990000000000    -0.0128128  
C107     C      0.260500000000     0.357400000000     0.521460000000     0.0347356  
C108     C      0.216050000000     0.358370000000     0.989360000000     0.149253   
C109     C      0.231990000000     0.108900000000     0.977100000000     0.0248969  
C110     C      0.278030000000     0.107640000000     0.506310000000    -0.0142972  
C111     C      0.233810000000     0.141110000000     0.975500000000     0.0342935  
C112     C      0.278860000000     0.140220000000     0.506750000000     0.147931   
C113     C      0.236040000000     0.519680000000     0.858150000000     0.0258375  
C114     C      0.265020000000     0.473420000000     0.856500000000    -0.0130219  
C115     C      0.235210000000     0.517990000000     0.890260000000     0.0361396  
C116     C      0.266010000000     0.472520000000     0.889030000000     0.148511   
C117     C      0.255430000000     0.477550000000     0.638590000000     0.0260982  
C118     C      0.231340000000     0.026590000000     0.640030000000    -0.0127824  
C119     C      0.256600000000     0.479100000000     0.606480000000     0.0365467  
C120     C      0.230420000000     0.027400000000     0.607520000000     0.148367   
C121     C      0.478400000000     0.229850000000     0.857660000000     0.0250681  
C122     C      0.025320000000     0.257710000000     0.857180000000    -0.0130465  
C123     C      0.479690000000     0.228260000000     0.889900000000     0.0343116  
C124     C      0.025880000000     0.257890000000     0.889630000000     0.149553   
C125     C      0.471970000000     0.243470000000     0.639230000000     0.0242154  
C126     C      0.021330000000     0.266750000000     0.639440000000    -0.0097068  
C127     C      0.472410000000     0.242910000000     0.607000000000     0.036038   
C128     C      0.021150000000     0.268160000000     0.606950000000     0.151727   
C129     C      0.137460000000     0.020230000000     0.735910000000     0.0259381  
C130     C      0.138190000000     0.473430000000     0.764070000000    -0.012672   
C131     C      0.105350000000     0.018950000000     0.734520000000     0.0345181  
C132     C      0.105680000000     0.473020000000     0.764690000000     0.146102   
C133     C      0.356120000000     0.024110000000     0.759110000000     0.0259408  
C134     C      0.355470000000     0.476780000000     0.731870000000    -0.0134059  
C135     C      0.388310000000     0.022700000000     0.760640000000     0.0348508  
C136     C      0.387890000000     0.475850000000     0.731920000000     0.148495   
C137     C      0.974140000000     0.358670000000     0.764660000000     0.024649   
C138     C      0.021290000000     0.358180000000     0.737210000000    -0.0102226  
C139     C      0.975060000000     0.390970000000     0.765460000000     0.0320777  
C140     C      0.021630000000     0.390590000000     0.736380000000     0.14929    
C141     C      0.014950000000     0.108800000000     0.767110000000     0.0302564  
C142     C      0.484700000000     0.108010000000     0.721660000000    -0.0136952  
C143     C      0.016820000000     0.140950000000     0.765270000000     0.0356368  
C144     C      0.484800000000     0.140480000000     0.720680000000     0.149193   
C145     C      0.998230000000     0.560900000000     0.246220000000     0.39678    
C146     C      0.496590000000     0.938250000000     0.249620000000     0.406259   
C147     C      0.058050000000     0.497320000000     0.249180000000     0.406371   
C148     C      0.435570000000     0.999950000000     0.246860000000     0.410895   
C149     C      0.500220000000     0.688110000000     0.244510000000     0.412429   
C150     C      0.497740000000     0.810810000000     0.251030000000     0.404253   
C151     C      0.497440000000     0.752870000000     0.186880000000     0.400303   
C152     C      0.500340000000     0.745910000000     0.309840000000     0.402271   
C153     C      0.308230000000     0.500550000000     0.246040000000     0.403332   
C154     C      0.185340000000     0.997940000000     0.250180000000     0.404112   
C155     C      0.244360000000     0.500900000000     0.186830000000     0.403295   
C156     C      0.249300000000     0.997770000000     0.309770000000     0.404037   
C157     C      0.251820000000     0.560750000000     0.994470000000     0.399459   
C158     C      0.242720000000     0.937800000000     0.502370000000     0.399574   
C159     C      0.244810000000     0.503140000000     0.059640000000     0.411567   
C160     C      0.249590000000     0.995350000000     0.437130000000     0.411197   
C161     C      0.996020000000     0.753860000000     0.059600000000     0.409822   
C162     C      0.500270000000     0.745380000000     0.437080000000     0.408632   
C163     C      0.058740000000     0.745800000000     0.000450000000     0.395205   
C164     C      0.436050000000     0.753490000000     0.495390000000     0.409404   
C165     C      0.253790000000     0.688090000000     0.993670000000     0.410097   
C166     C      0.240870000000     0.810410000000     0.002800000000     0.406016   
C167     C      0.186110000000     0.742910000000     0.999360000000     0.409857   
C168     C      0.308670000000     0.754680000000     0.997010000000     0.402067   
C169     C      0.356790000000     0.741580000000     0.019400000000     0.0227246  
C170     C      0.355740000000     0.769830000000     0.472710000000    -0.0131911  
C171     C      0.388870000000     0.740330000000     0.017990000000     0.0339641  
C172     C      0.388330000000     0.770450000000     0.472100000000     0.147613   
C173     C      0.106980000000     0.765550000000     0.484370000000     0.0232695  
C174     C      0.105450000000     0.720960000000     0.015830000000    -0.013912   
C175     C      0.138980000000     0.763550000000     0.482990000000     0.0345974  
C176     C      0.138050000000     0.720050000000     0.016460000000     0.145489   
C177     C      0.262320000000     0.889630000000     0.019990000000     0.0245952  
C178     C      0.216790000000     0.890950000000     0.490010000000    -0.0140362  
C179     C      0.260500000000     0.857400000000     0.021460000000     0.034413   
C180     C      0.216050000000     0.858370000000     0.489360000000     0.147973   
C181     C      0.231990000000     0.608900000000     0.477100000000     0.0246163  
C182     C      0.278030000000     0.607630000000     0.006310000000    -0.0157343  
C183     C      0.233810000000     0.641110000000     0.475500000000     0.0338929  
C184     C      0.278860000000     0.640220000000     0.006750000000     0.146698   
C185     C      0.236040000000     0.019680000000     0.358150000000     0.0254682  
C186     C      0.265020000000     0.973420000000     0.356500000000    -0.0129547  
C187     C      0.235210000000     0.017990000000     0.390260000000     0.0356631  
C188     C      0.266010000000     0.972520000000     0.389030000000     0.148503   
C189     C      0.255430000000     0.977550000000     0.138590000000     0.0264467  
C190     C      0.231340000000     0.526590000000     0.140030000000    -0.0127006  
C191     C      0.256600000000     0.979100000000     0.106480000000     0.0368498  
C192     C      0.230420000000     0.527400000000     0.107520000000     0.148328   
C193     C      0.478400000000     0.729850000000     0.357660000000     0.0250514  
C194     C      0.025320000000     0.757710000000     0.357180000000    -0.0130796  
C195     C      0.479690000000     0.728260000000     0.389900000000     0.0342612  
C196     C      0.025880000000     0.757890000000     0.389620000000     0.149434   
C197     C      0.471970000000     0.743470000000     0.139220000000     0.0241639  
C198     C      0.021330000000     0.766750000000     0.139450000000    -0.00965204 
C199     C      0.472410000000     0.742910000000     0.107000000000     0.035979   
C200     C      0.021150000000     0.768160000000     0.106950000000     0.151606   
C201     C      0.137460000000     0.520230000000     0.235900000000     0.0262284  
C202     C      0.138190000000     0.973430000000     0.264070000000    -0.0126015  
C203     C      0.105350000000     0.518950000000     0.234520000000     0.0348713  
C204     C      0.105680000000     0.973020000000     0.264690000000     0.146223   
C205     C      0.356120000000     0.524110000000     0.259110000000     0.0258772  
C206     C      0.355470000000     0.976780000000     0.231870000000    -0.012896   
C207     C      0.388310000000     0.522700000000     0.260640000000     0.0353781  
C208     C      0.387890000000     0.975850000000     0.231920000000     0.148412   
C209     C      0.974140000000     0.858670000000     0.264660000000     0.0246471  
C210     C      0.021290000000     0.858180000000     0.237210000000    -0.01023    
C211     C      0.975060000000     0.890980000000     0.265460000000     0.0320922  
C212     C      0.021630000000     0.890590000000     0.236380000000     0.149277   
C213     C      0.014950000000     0.608800000000     0.267110000000     0.0302671  
C214     C      0.484700000000     0.608010000000     0.221660000000    -0.0136976  
C215     C      0.016820000000     0.640950000000     0.265270000000     0.0356182  
C216     C      0.484800000000     0.640480000000     0.220680000000     0.149187   
C217     C      0.998230000000     0.560900000000     0.746220000000     0.396779   
C218     C      0.496590000000     0.938250000000     0.749620000000     0.406251   
C219     C      0.058050000000     0.497320000000     0.749180000000     0.40636    
C220     C      0.435570000000     0.999950000000     0.746860000000     0.4109     
C221     C      0.500220000000     0.688110000000     0.744510000000     0.412436   
C222     C      0.497740000000     0.810810000000     0.751030000000     0.404262   
C223     C      0.497440000000     0.752870000000     0.686880000000     0.400314   
C224     C      0.500340000000     0.745910000000     0.809840000000     0.402212   
C225     C      0.308230000000     0.500550000000     0.746040000000     0.403338   
C226     C      0.185340000000     0.997940000000     0.750180000000     0.404131   
C227     C      0.244360000000     0.500900000000     0.686830000000     0.403304   
C228     C      0.249300000000     0.997770000000     0.809770000000     0.404053   
C229     C      0.251820000000     0.560750000000     0.494470000000     0.399417   
C230     C      0.242720000000     0.937800000000     0.002370000000     0.397264   
C231     C      0.244810000000     0.503140000000     0.559640000000     0.411678   
C232     C      0.249590000000     0.995350000000     0.937130000000     0.411175   
C233     C      0.996020000000     0.753860000000     0.559600000000     0.409801   
C234     C      0.500270000000     0.745380000000     0.937080000000     0.408533   
C235     C      0.058740000000     0.745800000000     0.500450000000     0.39744    
C236     C      0.436050000000     0.753490000000     0.995390000000     0.409399   
C237     C      0.253790000000     0.688090000000     0.493670000000     0.407777   
C238     C      0.240870000000     0.810410000000     0.502800000000     0.408301   
C239     C      0.186110000000     0.742910000000     0.499360000000     0.407579   
C240     C      0.308670000000     0.754680000000     0.497010000000     0.399725   
C241     C      0.356790000000     0.741580000000     0.519400000000     0.0239436  
C242     C      0.355740000000     0.769830000000     0.972710000000    -0.0127993  
C243     C      0.388870000000     0.740330000000     0.517990000000     0.0354709  
C244     C      0.388330000000     0.770450000000     0.972100000000     0.14788    
C245     C      0.106980000000     0.765550000000     0.984370000000     0.0251284  
C246     C      0.105450000000     0.720960000000     0.515830000000    -0.0140075  
C247     C      0.138980000000     0.763550000000     0.982990000000     0.034428   
C248     C      0.138050000000     0.720050000000     0.516460000000     0.147156   
C249     C      0.262320000000     0.889630000000     0.519980000000     0.0250361  
C250     C      0.216790000000     0.890950000000     0.990000000000    -0.0127397  
C251     C      0.260500000000     0.857400000000     0.521460000000     0.0347382  
C252     C      0.216050000000     0.858370000000     0.989360000000     0.14924    
C253     C      0.231990000000     0.608900000000     0.977100000000     0.0249161  
C254     C      0.278030000000     0.607630000000     0.506310000000    -0.0142161  
C255     C      0.233810000000     0.641110000000     0.975500000000     0.0343052  
C256     C      0.278860000000     0.640220000000     0.506750000000     0.14788    
C257     C      0.236040000000     0.019680000000     0.858150000000     0.0254849  
C258     C      0.265020000000     0.973420000000     0.856500000000    -0.0129478  
C259     C      0.235210000000     0.017990000000     0.890260000000     0.0357142  
C260     C      0.266010000000     0.972520000000     0.889030000000     0.148603   
C261     C      0.255430000000     0.977550000000     0.638590000000     0.0264785  
C262     C      0.231340000000     0.526590000000     0.640030000000    -0.0126965  
C263     C      0.256600000000     0.979100000000     0.606480000000     0.0369325  
C264     C      0.230420000000     0.527400000000     0.607520000000     0.148453   
C265     C      0.478400000000     0.729850000000     0.857660000000     0.0250763  
C266     C      0.025320000000     0.757710000000     0.857180000000    -0.0130454  
C267     C      0.479690000000     0.728260000000     0.889900000000     0.0343103  
C268     C      0.025880000000     0.757890000000     0.889630000000     0.149567   
C269     C      0.471970000000     0.743470000000     0.639230000000     0.0242196  
C270     C      0.021330000000     0.766750000000     0.639440000000    -0.00970329 
C271     C      0.472410000000     0.742910000000     0.607000000000     0.036043   
C272     C      0.021150000000     0.768160000000     0.606950000000     0.151735   
C273     C      0.137460000000     0.520230000000     0.735910000000     0.02631    
C274     C      0.138190000000     0.973430000000     0.764070000000    -0.0125689  
C275     C      0.105350000000     0.518950000000     0.734520000000     0.0348586  
C276     C      0.105680000000     0.973020000000     0.764690000000     0.146204   
C277     C      0.356120000000     0.524110000000     0.759110000000     0.0259118  
C278     C      0.355470000000     0.976780000000     0.731870000000    -0.0128923  
C279     C      0.388310000000     0.522700000000     0.760640000000     0.0353563  
C280     C      0.387890000000     0.975850000000     0.731920000000     0.148475   
C281     C      0.974140000000     0.858670000000     0.764660000000     0.0246569  
C282     C      0.021290000000     0.858180000000     0.737210000000    -0.0102219  
C283     C      0.975060000000     0.890980000000     0.765460000000     0.0321173  
C284     C      0.021630000000     0.890590000000     0.736380000000     0.149304   
C285     C      0.014950000000     0.608800000000     0.767110000000     0.0302823  
C286     C      0.484700000000     0.608010000000     0.721660000000    -0.0136894  
C287     C      0.016820000000     0.640950000000     0.765270000000     0.035634   
C288     C      0.484800000000     0.640480000000     0.720680000000     0.149207   
C289     C      0.498230000000     0.060900000000     0.246220000000     0.403331   
C290     C      0.996590000000     0.438250000000     0.249620000000     0.399603   
C291     C      0.558050000000     0.997320000000     0.249180000000     0.408041   
C292     C      0.935570000000     0.499950000000     0.246860000000     0.409812   
C293     C      0.000220000000     0.188110000000     0.244510000000     0.418421   
C294     C      0.997740000000     0.310810000000     0.251030000000     0.398461   
C295     C      0.997430000000     0.252870000000     0.186880000000     0.394627   
C296     C      0.000340000000     0.245910000000     0.309840000000     0.408073   
C297     C      0.808230000000     0.000550000000     0.246040000000     0.402732   
C298     C      0.685340000000     0.497940000000     0.250180000000     0.403485   
C299     C      0.744360000000     0.000900000000     0.186830000000     0.402691   
C300     C      0.749290000000     0.497770000000     0.309770000000     0.403396   
C301     C      0.751820000000     0.060750000000     0.994470000000     0.399455   
C302     C      0.742710000000     0.437800000000     0.502370000000     0.399571   
C303     C      0.744810000000     0.003140000000     0.059640000000     0.410935   
C304     C      0.749590000000     0.495350000000     0.437130000000     0.411192   
C305     C      0.496030000000     0.253860000000     0.059600000000     0.410653   
C306     C      0.000270000000     0.245390000000     0.437080000000     0.413851   
C307     C      0.558740000000     0.245800000000     0.000450000000     0.396028   
C308     C      0.936050000000     0.253490000000     0.495390000000     0.40923    
C309     C      0.753790000000     0.188090000000     0.993670000000     0.409993   
C310     C      0.740870000000     0.310410000000     0.002800000000     0.406021   
C311     C      0.686110000000     0.242910000000     0.999360000000     0.409831   
C312     C      0.808670000000     0.254670000000     0.997010000000     0.40213    
C313     C      0.856790000000     0.241580000000     0.019400000000     0.0226641  
C314     C      0.855740000000     0.269830000000     0.472710000000    -0.013212   
C315     C      0.888870000000     0.240340000000     0.017990000000     0.0339438  
C316     C      0.888320000000     0.270450000000     0.472100000000     0.147351   
C317     C      0.606970000000     0.265550000000     0.484370000000     0.0232451  
C318     C      0.605450000000     0.220960000000     0.015830000000    -0.0139593  
C319     C      0.638980000000     0.263550000000     0.482990000000     0.0344659  
C320     C      0.638050000000     0.220050000000     0.016460000000     0.145297   
C321     C      0.762320000000     0.389630000000     0.019990000000     0.0245242  
C322     C      0.716790000000     0.390940000000     0.490010000000    -0.0140777  
C323     C      0.760500000000     0.357400000000     0.021460000000     0.0343939  
C324     C      0.716050000000     0.358370000000     0.489360000000     0.147902   
C325     C      0.731990000000     0.108900000000     0.477100000000     0.0245664  
C326     C      0.778030000000     0.107640000000     0.006310000000    -0.0158192  
C327     C      0.733810000000     0.141110000000     0.475500000000     0.03385    
C328     C      0.778860000000     0.140220000000     0.006750000000     0.146714   
C329     C      0.736040000000     0.519680000000     0.358150000000     0.0257644  
C330     C      0.765030000000     0.473420000000     0.356500000000    -0.0131051  
C331     C      0.735210000000     0.517990000000     0.390260000000     0.0360356  
C332     C      0.766010000000     0.472520000000     0.389030000000     0.148376   
C333     C      0.755420000000     0.477550000000     0.138590000000     0.0260925  
C334     C      0.731350000000     0.026590000000     0.140030000000    -0.0127528  
C335     C      0.756600000000     0.479100000000     0.106480000000     0.0363949  
C336     C      0.730420000000     0.027400000000     0.107520000000     0.14813    
C337     C      0.978400000000     0.229850000000     0.357660000000     0.0216626  
C338     C      0.525320000000     0.257710000000     0.357180000000    -0.0139713  
C339     C      0.979690000000     0.228260000000     0.389900000000     0.0308422  
C340     C      0.525880000000     0.257890000000     0.389620000000     0.14853    
C341     C      0.971970000000     0.243470000000     0.139220000000     0.0233185  
C342     C      0.521330000000     0.266750000000     0.139450000000    -0.0130315  
C343     C      0.972410000000     0.242910000000     0.107000000000     0.0354174  
C344     C      0.521150000000     0.268160000000     0.106950000000     0.147924   
C345     C      0.637460000000     0.020230000000     0.235900000000     0.0257197  
C346     C      0.638190000000     0.473430000000     0.264070000000    -0.0127464  
C347     C      0.605350000000     0.018950000000     0.234520000000     0.0344417  
C348     C      0.605680000000     0.473020000000     0.264690000000     0.145911   
C349     C      0.856120000000     0.024110000000     0.259110000000     0.0258606  
C350     C      0.855480000000     0.476780000000     0.231870000000    -0.0134715  
C351     C      0.888310000000     0.022700000000     0.260640000000     0.0348033  
C352     C      0.887890000000     0.475850000000     0.231920000000     0.14832    
C353     C      0.474140000000     0.358670000000     0.264660000000     0.0254786  
C354     C      0.521290000000     0.358180000000     0.237210000000    -0.01372    
C355     C      0.475060000000     0.390970000000     0.265460000000     0.0329577  
C356     C      0.521630000000     0.390590000000     0.236380000000     0.146207   
C357     C      0.514950000000     0.108800000000     0.267110000000     0.0255169  
C358     C      0.984690000000     0.108010000000     0.221660000000    -0.0134985  
C359     C      0.516830000000     0.140950000000     0.265270000000     0.0358709  
C360     C      0.984800000000     0.140480000000     0.220680000000     0.145012   
C361     C      0.498230000000     0.060900000000     0.746220000000     0.403328   
C362     C      0.996590000000     0.438250000000     0.749620000000     0.399594   
C363     C      0.558050000000     0.997320000000     0.749180000000     0.408039   
C364     C      0.935570000000     0.499950000000     0.746860000000     0.409809   
C365     C      0.000220000000     0.188110000000     0.744510000000     0.418427   
C366     C      0.997740000000     0.310810000000     0.751030000000     0.39847    
C367     C      0.997430000000     0.252870000000     0.686880000000     0.394634   
C368     C      0.000340000000     0.245910000000     0.809840000000     0.408006   
C369     C      0.808230000000     0.000550000000     0.746040000000     0.402728   
C370     C      0.685340000000     0.497940000000     0.750180000000     0.403495   
C371     C      0.744360000000     0.000900000000     0.686830000000     0.40269    
C372     C      0.749290000000     0.497770000000     0.809770000000     0.403404   
C373     C      0.751820000000     0.060750000000     0.494470000000     0.399415   
C374     C      0.742710000000     0.437800000000     0.002370000000     0.397266   
C375     C      0.744810000000     0.003140000000     0.559640000000     0.411034   
C376     C      0.749590000000     0.495350000000     0.937130000000     0.411171   
C377     C      0.496030000000     0.253860000000     0.559600000000     0.410634   
C378     C      0.000270000000     0.245390000000     0.937080000000     0.41374    
C379     C      0.558740000000     0.245800000000     0.500450000000     0.398263   
C380     C      0.936050000000     0.253490000000     0.995390000000     0.409227   
C381     C      0.753790000000     0.188090000000     0.493670000000     0.407682   
C382     C      0.740870000000     0.310410000000     0.502800000000     0.408298   
C383     C      0.686110000000     0.242910000000     0.499360000000     0.407558   
C384     C      0.808670000000     0.254670000000     0.497010000000     0.399795   
C385     C      0.856790000000     0.241580000000     0.519400000000     0.0238771  
C386     C      0.855740000000     0.269830000000     0.972710000000    -0.0128216  
C387     C      0.888870000000     0.240340000000     0.517990000000     0.0354415  
C388     C      0.888320000000     0.270450000000     0.972100000000     0.147617   
C389     C      0.606970000000     0.265550000000     0.984370000000     0.0251017  
C390     C      0.605450000000     0.220960000000     0.515830000000    -0.0140551  
C391     C      0.638980000000     0.263550000000     0.982990000000     0.0342979  
C392     C      0.638050000000     0.220050000000     0.516460000000     0.146958   
C393     C      0.762320000000     0.389630000000     0.519980000000     0.0249635  
C394     C      0.716790000000     0.390940000000     0.990000000000    -0.0127834  
C395     C      0.760500000000     0.357400000000     0.521460000000     0.0347175  
C396     C      0.716050000000     0.358370000000     0.989360000000     0.149166   
C397     C      0.731990000000     0.108900000000     0.977100000000     0.0248652  
C398     C      0.778030000000     0.107640000000     0.506310000000    -0.0143124  
C399     C      0.733810000000     0.141110000000     0.975500000000     0.0342607  
C400     C      0.778860000000     0.140220000000     0.506750000000     0.147889   
C401     C      0.736040000000     0.519680000000     0.858150000000     0.0257863  
C402     C      0.765030000000     0.473420000000     0.856500000000    -0.0130992  
C403     C      0.735210000000     0.517990000000     0.890260000000     0.0360932  
C404     C      0.766010000000     0.472520000000     0.889030000000     0.148475   
C405     C      0.755420000000     0.477550000000     0.638590000000     0.0261186  
C406     C      0.731350000000     0.026590000000     0.640030000000    -0.0127503  
C407     C      0.756600000000     0.479100000000     0.606480000000     0.0364705  
C408     C      0.730420000000     0.027400000000     0.607520000000     0.148253   
C409     C      0.978400000000     0.229850000000     0.857660000000     0.0216903  
C410     C      0.525320000000     0.257710000000     0.857180000000    -0.0139362  
C411     C      0.979690000000     0.228260000000     0.889900000000     0.0308979  
C412     C      0.525880000000     0.257890000000     0.889630000000     0.148666   
C413     C      0.971970000000     0.243470000000     0.639230000000     0.0233732  
C414     C      0.521330000000     0.266750000000     0.639440000000    -0.0130825  
C415     C      0.972410000000     0.242910000000     0.607000000000     0.0354798  
C416     C      0.521150000000     0.268160000000     0.606950000000     0.148047   
C417     C      0.637460000000     0.020230000000     0.735910000000     0.0257958  
C418     C      0.638190000000     0.473430000000     0.764070000000    -0.0127149  
C419     C      0.605350000000     0.018950000000     0.734520000000     0.0344235  
C420     C      0.605680000000     0.473020000000     0.764690000000     0.145891   
C421     C      0.856120000000     0.024110000000     0.759110000000     0.0258957  
C422     C      0.855480000000     0.476780000000     0.731870000000    -0.0134748  
C423     C      0.888310000000     0.022700000000     0.760640000000     0.034774   
C424     C      0.887890000000     0.475850000000     0.731920000000     0.148383   
C425     C      0.474140000000     0.358670000000     0.764660000000     0.0254882  
C426     C      0.521290000000     0.358180000000     0.737210000000    -0.0137112  
C427     C      0.475060000000     0.390970000000     0.765460000000     0.0329825  
C428     C      0.521630000000     0.390590000000     0.736380000000     0.146234   
C429     C      0.514950000000     0.108800000000     0.767110000000     0.0255326  
C430     C      0.984690000000     0.108010000000     0.721660000000    -0.0134906  
C431     C      0.516830000000     0.140950000000     0.765270000000     0.0358869  
C432     C      0.984800000000     0.140480000000     0.720680000000     0.145031   
C433     C      0.498230000000     0.560900000000     0.246220000000     0.403305   
C434     C      0.996590000000     0.938250000000     0.249620000000     0.399588   
C435     C      0.558050000000     0.497320000000     0.249180000000     0.407397   
C436     C      0.935570000000     0.999950000000     0.246860000000     0.410461   
C437     C      0.000220000000     0.688110000000     0.244510000000     0.418324   
C438     C      0.997740000000     0.810810000000     0.251030000000     0.398499   
C439     C      0.997430000000     0.752870000000     0.186880000000     0.394633   
C440     C      0.000340000000     0.745910000000     0.309840000000     0.408082   
C441     C      0.808230000000     0.500550000000     0.246040000000     0.40332    
C442     C      0.685340000000     0.997940000000     0.250180000000     0.404154   
C443     C      0.744360000000     0.500900000000     0.186830000000     0.40328    
C444     C      0.749290000000     0.997770000000     0.309770000000     0.404059   
C445     C      0.751820000000     0.560750000000     0.994470000000     0.399458   
C446     C      0.742710000000     0.937800000000     0.502370000000     0.399547   
C447     C      0.744810000000     0.503140000000     0.059640000000     0.411561   
C448     C      0.749590000000     0.995350000000     0.437130000000     0.411195   
C449     C      0.496030000000     0.753860000000     0.059600000000     0.410649   
C450     C      0.000270000000     0.745380000000     0.437080000000     0.413843   
C451     C      0.558740000000     0.745800000000     0.000450000000     0.396013   
C452     C      0.936050000000     0.753490000000     0.495390000000     0.40898    
C453     C      0.753790000000     0.688090000000     0.993670000000     0.410093   
C454     C      0.740870000000     0.810410000000     0.002800000000     0.406007   
C455     C      0.686110000000     0.742910000000     0.999360000000     0.409836   
C456     C      0.808670000000     0.754680000000     0.997010000000     0.402127   
C457     C      0.856790000000     0.741580000000     0.019400000000     0.0227076  
C458     C      0.855740000000     0.769830000000     0.472710000000    -0.0132095  
C459     C      0.888870000000     0.740330000000     0.017990000000     0.0338723  
C460     C      0.888320000000     0.770450000000     0.472100000000     0.147351   
C461     C      0.606970000000     0.765550000000     0.484370000000     0.0232467  
C462     C      0.605450000000     0.720960000000     0.015830000000    -0.0139924  
C463     C      0.638980000000     0.763550000000     0.482990000000     0.0344717  
C464     C      0.638050000000     0.720050000000     0.016460000000     0.145309   
C465     C      0.762320000000     0.889630000000     0.019990000000     0.0245395  
C466     C      0.716790000000     0.890950000000     0.490010000000    -0.0140086  
C467     C      0.760500000000     0.857400000000     0.021460000000     0.0343953  
C468     C      0.716050000000     0.858370000000     0.489360000000     0.147885   
C469     C      0.731990000000     0.608900000000     0.477100000000     0.0245839  
C470     C      0.778030000000     0.607630000000     0.006310000000    -0.0157493  
C471     C      0.733810000000     0.641110000000     0.475500000000     0.0338593  
C472     C      0.778860000000     0.640220000000     0.006750000000     0.146656   
C473     C      0.736040000000     0.019680000000     0.358150000000     0.0254179  
C474     C      0.765030000000     0.973420000000     0.356500000000    -0.0130318  
C475     C      0.735210000000     0.017990000000     0.390260000000     0.035618   
C476     C      0.766010000000     0.972520000000     0.389030000000     0.148468   
C477     C      0.755420000000     0.977550000000     0.138590000000     0.0264673  
C478     C      0.731350000000     0.526590000000     0.140030000000    -0.0126691  
C479     C      0.756600000000     0.979100000000     0.106480000000     0.0367739  
C480     C      0.730420000000     0.527400000000     0.107520000000     0.148213   
C481     C      0.978400000000     0.729850000000     0.357660000000     0.0216696  
C482     C      0.525320000000     0.757710000000     0.357180000000    -0.0139702  
C483     C      0.979690000000     0.728260000000     0.389900000000     0.0308398  
C484     C      0.525880000000     0.757890000000     0.389620000000     0.148545   
C485     C      0.971970000000     0.743470000000     0.139220000000     0.0233225  
C486     C      0.521330000000     0.766750000000     0.139450000000    -0.0130283  
C487     C      0.972410000000     0.742910000000     0.107000000000     0.035422   
C488     C      0.521150000000     0.768160000000     0.106950000000     0.147932   
C489     C      0.637460000000     0.520230000000     0.235900000000     0.0260847  
C490     C      0.638190000000     0.973430000000     0.264070000000    -0.0126439  
C491     C      0.605350000000     0.518950000000     0.234520000000     0.0347757  
C492     C      0.605680000000     0.973020000000     0.264690000000     0.146013   
C493     C      0.856120000000     0.524110000000     0.259110000000     0.0258317  
C494     C      0.855480000000     0.976780000000     0.231870000000    -0.0129655  
C495     C      0.888310000000     0.522700000000     0.260640000000     0.0352993  
C496     C      0.887890000000     0.975850000000     0.231920000000     0.148302   
C497     C      0.474140000000     0.858670000000     0.264660000000     0.0254862  
C498     C      0.521290000000     0.858180000000     0.237210000000    -0.0137161  
C499     C      0.475060000000     0.890980000000     0.265460000000     0.0329953  
C500     C      0.521630000000     0.890590000000     0.236380000000     0.146226   
C501     C      0.514950000000     0.608800000000     0.267110000000     0.0255329  
C502     C      0.984690000000     0.608010000000     0.221660000000    -0.0134929  
C503     C      0.516830000000     0.640950000000     0.265270000000     0.0358692  
C504     C      0.984800000000     0.640480000000     0.220680000000     0.14502    
C505     C      0.498230000000     0.560900000000     0.746220000000     0.403301   
C506     C      0.996590000000     0.938250000000     0.749620000000     0.399579   
C507     C      0.558050000000     0.497320000000     0.749180000000     0.407386   
C508     C      0.935570000000     0.999950000000     0.746860000000     0.410467   
C509     C      0.000220000000     0.688110000000     0.744510000000     0.418331   
C510     C      0.997740000000     0.810810000000     0.751030000000     0.398508   
C511     C      0.997430000000     0.752870000000     0.686880000000     0.39464    
C512     C      0.000340000000     0.745910000000     0.809840000000     0.408015   
C513     C      0.808230000000     0.500550000000     0.746040000000     0.403325   
C514     C      0.685340000000     0.997940000000     0.750180000000     0.404173   
C515     C      0.744360000000     0.500900000000     0.686830000000     0.40329    
C516     C      0.749290000000     0.997770000000     0.809770000000     0.404075   
C517     C      0.751820000000     0.560750000000     0.494470000000     0.399416   
C518     C      0.742710000000     0.937800000000     0.002370000000     0.397235   
C519     C      0.744810000000     0.503140000000     0.559640000000     0.411672   
C520     C      0.749590000000     0.995350000000     0.937130000000     0.411172   
C521     C      0.496030000000     0.753860000000     0.559600000000     0.410629   
C522     C      0.000270000000     0.745380000000     0.937080000000     0.413731   
C523     C      0.558740000000     0.745800000000     0.500450000000     0.398256   
C524     C      0.936050000000     0.753490000000     0.995390000000     0.408977   
C525     C      0.753790000000     0.688090000000     0.493670000000     0.407771   
C526     C      0.740870000000     0.810410000000     0.502800000000     0.408292   
C527     C      0.686110000000     0.742910000000     0.499360000000     0.407554   
C528     C      0.808670000000     0.754680000000     0.497010000000     0.399783   
C529     C      0.856790000000     0.741580000000     0.519400000000     0.0239257  
C530     C      0.855740000000     0.769830000000     0.972710000000    -0.0128179  
C531     C      0.888870000000     0.740330000000     0.517990000000     0.0353757  
C532     C      0.888320000000     0.770450000000     0.972100000000     0.147619   
C533     C      0.606970000000     0.765550000000     0.984370000000     0.0251107  
C534     C      0.605450000000     0.720960000000     0.515830000000    -0.0140886  
C535     C      0.638980000000     0.763550000000     0.982990000000     0.0343029  
C536     C      0.638050000000     0.720050000000     0.516460000000     0.146977   
C537     C      0.762320000000     0.889630000000     0.519980000000     0.0249799  
C538     C      0.716790000000     0.890950000000     0.990000000000    -0.0127102  
C539     C      0.760500000000     0.857400000000     0.521460000000     0.0347203  
C540     C      0.716050000000     0.858370000000     0.989360000000     0.149152   
C541     C      0.731990000000     0.608900000000     0.977100000000     0.0248843  
C542     C      0.778030000000     0.607630000000     0.506310000000    -0.0142313  
C543     C      0.733810000000     0.641110000000     0.975500000000     0.0342723  
C544     C      0.778860000000     0.640220000000     0.506750000000     0.147837   
C545     C      0.736040000000     0.019680000000     0.858150000000     0.0254348  
C546     C      0.765030000000     0.973420000000     0.856500000000    -0.0130248  
C547     C      0.735210000000     0.017990000000     0.890260000000     0.0356692  
C548     C      0.766010000000     0.972520000000     0.889030000000     0.148568   
C549     C      0.755420000000     0.977550000000     0.638590000000     0.0264991  
C550     C      0.731350000000     0.526590000000     0.640030000000    -0.012665   
C551     C      0.756600000000     0.979100000000     0.606480000000     0.0368565  
C552     C      0.730420000000     0.527400000000     0.607520000000     0.148338   
C553     C      0.978400000000     0.729850000000     0.857660000000     0.0216975  
C554     C      0.525320000000     0.757710000000     0.857180000000    -0.013935   
C555     C      0.979690000000     0.728260000000     0.889900000000     0.0308957  
C556     C      0.525880000000     0.757890000000     0.889630000000     0.14868    
C557     C      0.971970000000     0.743470000000     0.639230000000     0.0233773  
C558     C      0.521330000000     0.766750000000     0.639440000000    -0.0130792  
C559     C      0.972410000000     0.742910000000     0.607000000000     0.0354847  
C560     C      0.521150000000     0.768160000000     0.606950000000     0.148055   
C561     C      0.637460000000     0.520230000000     0.735910000000     0.0261664  
C562     C      0.638190000000     0.973430000000     0.764070000000    -0.0126112  
C563     C      0.605350000000     0.518950000000     0.734520000000     0.034763   
C564     C      0.605680000000     0.973020000000     0.764690000000     0.145994   
C565     C      0.856120000000     0.524110000000     0.759110000000     0.0258664  
C566     C      0.855480000000     0.976780000000     0.731870000000    -0.0129618  
C567     C      0.888310000000     0.522700000000     0.760640000000     0.0352776  
C568     C      0.887890000000     0.975850000000     0.731920000000     0.148364   
C569     C      0.474140000000     0.858670000000     0.764660000000     0.0254959  
C570     C      0.521290000000     0.858180000000     0.737210000000    -0.0137073  
C571     C      0.475060000000     0.890980000000     0.765460000000     0.0330201  
C572     C      0.521630000000     0.890590000000     0.736380000000     0.146254   
C573     C      0.514950000000     0.608800000000     0.767110000000     0.0255488  
C574     C      0.984690000000     0.608010000000     0.721660000000    -0.0134849  
C575     C      0.516830000000     0.640950000000     0.765270000000     0.0358853  
C576     C      0.984800000000     0.640480000000     0.720680000000     0.145039   
Cu1      Cu     0.996270000000     0.500240000000     0.276420000000     0.834106   
Cu2      Cu     0.497370000000     0.998800000000     0.219570000000     0.852441   
Cu3      Cu     0.470320000000     0.248470000000     0.248980000000     0.841767   
Cu4      Cu     0.027350000000     0.250220000000     0.247750000000     0.858997   
Cu5      Cu     0.247700000000     0.470780000000     0.247610000000     0.849473   
Cu6      Cu     0.245860000000     0.027870000000     0.248990000000     0.846561   
Cu7      Cu     0.218800000000     0.501690000000     0.996760000000     0.851093   
Cu8      Cu     0.275690000000     0.996850000000     0.500050000000     0.847027   
Cu9      Cu     0.995170000000     0.221180000000     0.500590000000     0.842801   
Cu10     Cu     0.499520000000     0.278150000000     0.996040000000     0.85031    
Cu11     Cu     0.248450000000     0.246830000000     0.026720000000     0.84163    
Cu12     Cu     0.246190000000     0.251610000000     0.469760000000     0.844961   
Cu13     Cu     0.996270000000     0.500240000000     0.776420000000     0.834189   
Cu14     Cu     0.497370000000     0.998800000000     0.719570000000     0.852538   
Cu15     Cu     0.470320000000     0.248470000000     0.748980000000     0.841903   
Cu16     Cu     0.027350000000     0.250220000000     0.747750000000     0.858982   
Cu17     Cu     0.247700000000     0.470780000000     0.747610000000     0.849482   
Cu18     Cu     0.245860000000     0.027870000000     0.748990000000     0.846563   
Cu19     Cu     0.218800000000     0.501690000000     0.496770000000     0.847579   
Cu20     Cu     0.275690000000     0.996850000000     0.000050000000     0.842178   
Cu21     Cu     0.995170000000     0.221180000000     0.000590000000     0.838001   
Cu22     Cu     0.499520000000     0.278150000000     0.496040000000     0.846837   
Cu23     Cu     0.248450000000     0.246830000000     0.526720000000     0.842907   
Cu24     Cu     0.246190000000     0.251610000000     0.969760000000     0.846754   
Cu25     Cu     0.996270000000     0.000240000000     0.276420000000     0.832854   
Cu26     Cu     0.497370000000     0.498800000000     0.219570000000     0.850914   
Cu27     Cu     0.470320000000     0.748470000000     0.248980000000     0.841751   
Cu28     Cu     0.027350000000     0.750230000000     0.247750000000     0.859141   
Cu29     Cu     0.247700000000     0.970780000000     0.247610000000     0.84993    
Cu30     Cu     0.245860000000     0.527870000000     0.248990000000     0.846977   
Cu31     Cu     0.218800000000     0.001690000000     0.996760000000     0.849726   
Cu32     Cu     0.275690000000     0.496850000000     0.500050000000     0.846004   
Cu33     Cu     0.995170000000     0.721180000000     0.500590000000     0.842818   
Cu34     Cu     0.499520000000     0.778150000000     0.996040000000     0.850297   
Cu35     Cu     0.248450000000     0.746830000000     0.026720000000     0.841641   
Cu36     Cu     0.246190000000     0.751610000000     0.469760000000     0.844843   
Cu37     Cu     0.996270000000     0.000240000000     0.776420000000     0.832917   
Cu38     Cu     0.497370000000     0.498800000000     0.719570000000     0.85099    
Cu39     Cu     0.470320000000     0.748470000000     0.748980000000     0.841887   
Cu40     Cu     0.027350000000     0.750230000000     0.747750000000     0.859126   
Cu41     Cu     0.247700000000     0.970780000000     0.747610000000     0.849945   
Cu42     Cu     0.245860000000     0.527870000000     0.748990000000     0.846986   
Cu43     Cu     0.218800000000     0.001690000000     0.496770000000     0.846242   
Cu44     Cu     0.275690000000     0.496850000000     0.000050000000     0.841154   
Cu45     Cu     0.995170000000     0.721180000000     0.000590000000     0.837997   
Cu46     Cu     0.499520000000     0.778150000000     0.496040000000     0.846811   
Cu47     Cu     0.248450000000     0.746830000000     0.526720000000     0.842924   
Cu48     Cu     0.246190000000     0.751610000000     0.969760000000     0.846642   
Cu49     Cu     0.496270000000     0.500240000000     0.276420000000     0.84211    
Cu50     Cu     0.997370000000     0.998800000000     0.219570000000     0.844427   
Cu51     Cu     0.970320000000     0.248470000000     0.248980000000     0.837866   
Cu52     Cu     0.527350000000     0.250220000000     0.247750000000     0.854966   
Cu53     Cu     0.747700000000     0.470780000000     0.247610000000     0.849338   
Cu54     Cu     0.745860000000     0.027870000000     0.248990000000     0.846565   
Cu55     Cu     0.718810000000     0.501690000000     0.996760000000     0.850794   
Cu56     Cu     0.775690000000     0.996850000000     0.500050000000     0.846771   
Cu57     Cu     0.495170000000     0.221180000000     0.500590000000     0.846244   
Cu58     Cu     0.999520000000     0.278150000000     0.996040000000     0.842643   
Cu59     Cu     0.748450000000     0.246830000000     0.026720000000     0.841494   
Cu60     Cu     0.746190000000     0.251610000000     0.469760000000     0.844971   
Cu61     Cu     0.496270000000     0.500240000000     0.776420000000     0.842189   
Cu62     Cu     0.997370000000     0.998800000000     0.719570000000     0.84452    
Cu63     Cu     0.970320000000     0.248470000000     0.748980000000     0.838002   
Cu64     Cu     0.527350000000     0.250220000000     0.747750000000     0.854953   
Cu65     Cu     0.747700000000     0.470780000000     0.747610000000     0.849347   
Cu66     Cu     0.745860000000     0.027870000000     0.748990000000     0.846567   
Cu67     Cu     0.718810000000     0.501690000000     0.496770000000     0.847275   
Cu68     Cu     0.775690000000     0.996850000000     0.000050000000     0.841923   
Cu69     Cu     0.495170000000     0.221180000000     0.000590000000     0.84142    
Cu70     Cu     0.999520000000     0.278150000000     0.496040000000     0.839155   
Cu71     Cu     0.748450000000     0.246830000000     0.526720000000     0.842772   
Cu72     Cu     0.746190000000     0.251610000000     0.969760000000     0.846765   
Cu73     Cu     0.496270000000     0.000240000000     0.276420000000     0.840827   
Cu74     Cu     0.997370000000     0.498800000000     0.219570000000     0.842878   
Cu75     Cu     0.970320000000     0.748470000000     0.248980000000     0.83785    
Cu76     Cu     0.527350000000     0.750230000000     0.247750000000     0.85511    
Cu77     Cu     0.747700000000     0.970780000000     0.247610000000     0.849796   
Cu78     Cu     0.745860000000     0.527870000000     0.248990000000     0.846979   
Cu79     Cu     0.718810000000     0.001690000000     0.996760000000     0.849432   
Cu80     Cu     0.775690000000     0.496850000000     0.500050000000     0.845747   
Cu81     Cu     0.495170000000     0.721180000000     0.500590000000     0.846265   
Cu82     Cu     0.999520000000     0.778150000000     0.996040000000     0.842633   
Cu83     Cu     0.748450000000     0.746830000000     0.026720000000     0.841506   
Cu84     Cu     0.746190000000     0.751610000000     0.469760000000     0.844852   
Cu85     Cu     0.496270000000     0.000240000000     0.776420000000     0.840886   
Cu86     Cu     0.997370000000     0.498800000000     0.719570000000     0.842951   
Cu87     Cu     0.970320000000     0.748470000000     0.748980000000     0.837986   
Cu88     Cu     0.527350000000     0.750230000000     0.747750000000     0.855097   
Cu89     Cu     0.747700000000     0.970780000000     0.747610000000     0.849811   
Cu90     Cu     0.745860000000     0.527870000000     0.748990000000     0.846988   
Cu91     Cu     0.718810000000     0.001690000000     0.496770000000     0.845943   
Cu92     Cu     0.775690000000     0.496850000000     0.000050000000     0.840898   
Cu93     Cu     0.495170000000     0.721180000000     0.000590000000     0.841419   
Cu94     Cu     0.999520000000     0.778150000000     0.496040000000     0.839132   
Cu95     Cu     0.748450000000     0.746830000000     0.526720000000     0.842789   
Cu96     Cu     0.746190000000     0.751610000000     0.969760000000     0.846653   
H1       H      0.401050000000     0.228180000000     0.036290000000     0.0308615  
H2       H      0.345400000000     0.229780000000     0.038380000000     0.0349749  
H3       H      0.343030000000     0.281170000000     0.454270000000     0.0484013  
H4       H      0.426570000000     0.283450000000     0.444290000000     0.105611   
H5       H      0.389990000000     0.295240000000     0.430370000000     0.0905104  
H6       H      0.151180000000     0.280720000000     0.469370000000     0.027321   
H7       H      0.095730000000     0.283850000000     0.471360000000     0.0329805  
H8       H      0.092510000000     0.203550000000     0.028490000000     0.0481183  
H9       H      0.175980000000     0.192510000000     0.030900000000     0.104674   
H10      H      0.139310000000     0.179970000000     0.043910000000     0.0900897  
H11      H      0.278350000000     0.345020000000     0.034040000000     0.0327923  
H12      H      0.281050000000     0.401070000000     0.032120000000     0.0369062  
H13      H      0.199020000000     0.403740000000     0.477720000000     0.0484025  
H14      H      0.188960000000     0.320180000000     0.475100000000     0.102431   
H15      H      0.175320000000     0.356860000000     0.962960000000     0.0893034  
H16      H      0.215740000000     0.153480000000     0.463220000000     0.031908   
H17      H      0.213030000000     0.097460000000     0.465320000000     0.0370736  
H18      H      0.296010000000     0.094870000000     0.018320000000     0.0485472  
H19      H      0.306410000000     0.178510000000     0.020150000000     0.102891   
H20      H      0.320120000000     0.141850000000     0.032310000000     0.0898587  
H21      H      0.222990000000     0.536050000000     0.402740000000     0.0331161  
H22      H      0.223910000000     0.538590000000     0.346980000000     0.0389803  
H23      H      0.276580000000     0.455250000000     0.343550000000     0.0490723  
H24      H      0.291430000000     0.431110000000     0.390040000000     0.0907962  
H25      H      0.279740000000     0.444440000000     0.426870000000     0.106111   
H26      H      0.267070000000     0.459950000000     0.094010000000     0.0315783  
H27      H      0.265530000000     0.457540000000     0.149890000000     0.0374634  
H28      H      0.221630000000     0.045850000000     0.152910000000     0.0482279  
H29      H      0.218700000000     0.055930000000     0.069380000000     0.104584   
H30      H      0.208820000000     0.570920000000     0.106150000000     0.0903068  
H31      H      0.461090000000     0.216580000000     0.402060000000     0.0317728  
H32      H      0.459290000000     0.218630000000     0.345930000000     0.038307   
H33      H      0.043920000000     0.269160000000     0.344800000000     0.0496527  
H34      H      0.053940000000     0.269620000000     0.428080000000     0.103845   
H35      H      0.068160000000     0.281760000000     0.391700000000     0.0895858  
H36      H      0.452830000000     0.232820000000     0.094950000000     0.0292201  
H37      H      0.452260000000     0.233420000000     0.151020000000     0.0348569  
H38      H      0.041150000000     0.275920000000     0.151810000000     0.048028   
H39      H      0.048970000000     0.279840000000     0.068230000000     0.107072   
H40      H      0.065030000000     0.288830000000     0.104700000000     0.0912312  
H41      H      0.093260000000     0.037370000000     0.222460000000     0.0341522  
H42      H      0.149070000000     0.039210000000     0.224280000000     0.0379682  
H43      H      0.150780000000     0.454920000000     0.275470000000     0.0483232  
H44      H      0.067360000000     0.445250000000     0.277850000000     0.104452   
H45      H      0.103890000000     0.431200000000     0.289410000000     0.0903623  
H46      H      0.400500000000     0.041350000000     0.272230000000     0.0340203  
H47      H      0.344490000000     0.043340000000     0.270270000000     0.0387872  
H48      H      0.343000000000     0.457990000000     0.220800000000     0.0493323  
H49      H      0.425820000000     0.446270000000     0.221830000000     0.105758   
H50      H      0.389440000000     0.432940000000     0.209080000000     0.090528   
H51      H      0.956290000000     0.403190000000     0.276810000000     0.0315824  
H52      H      0.955130000000     0.346910000000     0.276020000000     0.0371031  
H53      H      0.040130000000     0.345780000000     0.226180000000     0.0488336  
H54      H      0.564210000000     0.392230000000     0.213040000000     0.0899252  
H55      H      0.050200000000     0.428820000000     0.224410000000     0.104532   
H56      H      0.029680000000     0.153200000000     0.283030000000     0.0339332  
H57      H      0.027100000000     0.097180000000     0.285720000000     0.0386043  
H58      H      0.472230000000     0.095440000000     0.203850000000     0.0497243  
H59      H      0.472030000000     0.178750000000     0.192690000000     0.104091   
H60      H      0.458700000000     0.142280000000     0.179740000000     0.090201   
H61      H      0.401050000000     0.228180000000     0.536290000000     0.0308842  
H62      H      0.345400000000     0.229780000000     0.538380000000     0.0348901  
H63      H      0.343030000000     0.281170000000     0.954270000000     0.0484539  
H64      H      0.426570000000     0.283450000000     0.944280000000     0.105665   
H65      H      0.389990000000     0.295240000000     0.930370000000     0.0906313  
H66      H      0.151180000000     0.280720000000     0.969370000000     0.027486   
H67      H      0.095730000000     0.283850000000     0.971360000000     0.0327899  
H68      H      0.092510000000     0.203550000000     0.528490000000     0.0482855  
H69      H      0.175980000000     0.192510000000     0.530900000000     0.105124   
H70      H      0.139310000000     0.179970000000     0.543910000000     0.090323   
H71      H      0.278350000000     0.345020000000     0.534040000000     0.0329357  
H72      H      0.281050000000     0.401070000000     0.532120000000     0.03697    
H73      H      0.199020000000     0.403740000000     0.977720000000     0.0483869  
H74      H      0.188960000000     0.320180000000     0.975100000000     0.102755   
H75      H      0.175320000000     0.356860000000     0.462960000000     0.0891355  
H76      H      0.215740000000     0.153480000000     0.963220000000     0.0320335  
H77      H      0.213030000000     0.097460000000     0.965320000000     0.0372109  
H78      H      0.296010000000     0.094870000000     0.518320000000     0.0486314  
H79      H      0.306410000000     0.178510000000     0.520150000000     0.103313   
H80      H      0.320120000000     0.141850000000     0.532310000000     0.0900613  
H81      H      0.222990000000     0.536050000000     0.902740000000     0.0331782  
H82      H      0.223910000000     0.538590000000     0.846980000000     0.0390134  
H83      H      0.276580000000     0.455250000000     0.843550000000     0.0491052  
H84      H      0.291430000000     0.431110000000     0.890040000000     0.0909369  
H85      H      0.279740000000     0.444440000000     0.926870000000     0.106439   
H86      H      0.267070000000     0.459950000000     0.594010000000     0.0316418  
H87      H      0.265530000000     0.457540000000     0.649890000000     0.0375     
H88      H      0.221630000000     0.045850000000     0.652910000000     0.0482611  
H89      H      0.218700000000     0.055930000000     0.569380000000     0.104909   
H90      H      0.208820000000     0.570920000000     0.606150000000     0.0904371  
H91      H      0.461090000000     0.216580000000     0.902060000000     0.0318896  
H92      H      0.459290000000     0.218630000000     0.845930000000     0.0383447  
H93      H      0.043920000000     0.269160000000     0.844800000000     0.0496668  
H94      H      0.053940000000     0.269620000000     0.928080000000     0.104003   
H95      H      0.068160000000     0.281760000000     0.891700000000     0.0896549  
H96      H      0.452830000000     0.232820000000     0.594950000000     0.0293387  
H97      H      0.452260000000     0.233420000000     0.651020000000     0.0348712  
H98      H      0.041150000000     0.275920000000     0.651810000000     0.0480856  
H99      H      0.048970000000     0.279840000000     0.568230000000     0.10735    
H100     H      0.065030000000     0.288830000000     0.604700000000     0.0913853  
H101     H      0.093260000000     0.037370000000     0.722460000000     0.0341914  
H102     H      0.149070000000     0.039210000000     0.724280000000     0.0379727  
H103     H      0.150780000000     0.454920000000     0.775470000000     0.048331   
H104     H      0.067360000000     0.445250000000     0.777850000000     0.104471   
H105     H      0.103890000000     0.431200000000     0.789410000000     0.0904243  
H106     H      0.400500000000     0.041350000000     0.772230000000     0.0340669  
H107     H      0.344490000000     0.043340000000     0.770270000000     0.0388096  
H108     H      0.343000000000     0.457990000000     0.720800000000     0.049356   
H109     H      0.425820000000     0.446270000000     0.721830000000     0.105782   
H110     H      0.389440000000     0.432940000000     0.709070000000     0.0905384  
H111     H      0.956290000000     0.403190000000     0.776820000000     0.031609   
H112     H      0.955130000000     0.346910000000     0.776020000000     0.0371228  
H113     H      0.040130000000     0.345780000000     0.726180000000     0.0488557  
H114     H      0.564210000000     0.392230000000     0.713040000000     0.0899732  
H115     H      0.050200000000     0.428820000000     0.724410000000     0.104556   
H116     H      0.029680000000     0.153200000000     0.783030000000     0.0339661  
H117     H      0.027100000000     0.097180000000     0.785720000000     0.0386498  
H118     H      0.472230000000     0.095440000000     0.703850000000     0.0497581  
H119     H      0.472030000000     0.178750000000     0.692690000000     0.104106   
H120     H      0.458700000000     0.142280000000     0.679740000000     0.0902469  
H121     H      0.401050000000     0.728180000000     0.036290000000     0.0308903  
H122     H      0.345400000000     0.729780000000     0.038380000000     0.034972   
H123     H      0.343030000000     0.781170000000     0.454270000000     0.0484032  
H124     H      0.426570000000     0.783450000000     0.444290000000     0.105624   
H125     H      0.389990000000     0.795240000000     0.430370000000     0.0905237  
H126     H      0.151180000000     0.780720000000     0.469370000000     0.0273262  
H127     H      0.095730000000     0.783850000000     0.471360000000     0.0329915  
H128     H      0.092510000000     0.703560000000     0.028490000000     0.0481458  
H129     H      0.175980000000     0.692510000000     0.030900000000     0.104676   
H130     H      0.139310000000     0.679970000000     0.043910000000     0.0901022  
H131     H      0.278350000000     0.845020000000     0.034040000000     0.0327984  
H132     H      0.281050000000     0.901070000000     0.032120000000     0.036928   
H133     H      0.199020000000     0.903740000000     0.477720000000     0.048425   
H134     H      0.188960000000     0.820180000000     0.475100000000     0.102437   
H135     H      0.175320000000     0.856860000000     0.962960000000     0.0893303  
H136     H      0.215740000000     0.653480000000     0.463220000000     0.0319205  
H137     H      0.213030000000     0.597460000000     0.465320000000     0.0371015  
H138     H      0.296010000000     0.594870000000     0.018320000000     0.0485679  
H139     H      0.306410000000     0.678510000000     0.020150000000     0.102973   
H140     H      0.320120000000     0.641850000000     0.032310000000     0.0898509  
H141     H      0.222990000000     0.036050000000     0.402740000000     0.0331023  
H142     H      0.223910000000     0.038590000000     0.346980000000     0.0389833  
H143     H      0.276580000000     0.955260000000     0.343550000000     0.0491069  
H144     H      0.291430000000     0.931110000000     0.390040000000     0.0908348  
H145     H      0.279740000000     0.944440000000     0.426870000000     0.106133   
H146     H      0.267070000000     0.959950000000     0.094010000000     0.0315699  
H147     H      0.265530000000     0.957540000000     0.149890000000     0.0374463  
H148     H      0.221630000000     0.545850000000     0.152910000000     0.0482323  
H149     H      0.218700000000     0.555930000000     0.069380000000     0.104597   
H150     H      0.208820000000     0.070920000000     0.106150000000     0.0902819  
H151     H      0.461090000000     0.716580000000     0.402060000000     0.0317835  
H152     H      0.459290000000     0.718630000000     0.345930000000     0.0383132  
H153     H      0.043920000000     0.769160000000     0.344800000000     0.0496569  
H154     H      0.053940000000     0.769620000000     0.428080000000     0.103851   
H155     H      0.068160000000     0.781760000000     0.391700000000     0.0895965  
H156     H      0.452830000000     0.732820000000     0.094950000000     0.0292268  
H157     H      0.452260000000     0.733420000000     0.151020000000     0.0348618  
H158     H      0.041150000000     0.775920000000     0.151810000000     0.0480315  
H159     H      0.048970000000     0.779840000000     0.068230000000     0.10708    
H160     H      0.065030000000     0.788830000000     0.104700000000     0.0912432  
H161     H      0.093260000000     0.537360000000     0.222460000000     0.0341555  
H162     H      0.149070000000     0.539210000000     0.224280000000     0.0379462  
H163     H      0.150780000000     0.954920000000     0.275470000000     0.0483354  
H164     H      0.067360000000     0.945250000000     0.277850000000     0.104483   
H165     H      0.103890000000     0.931200000000     0.289410000000     0.0904034  
H166     H      0.400500000000     0.541350000000     0.272230000000     0.0339762  
H167     H      0.344490000000     0.543350000000     0.270270000000     0.0388339  
H168     H      0.343000000000     0.957990000000     0.220800000000     0.0492797  
H169     H      0.425820000000     0.946270000000     0.221830000000     0.105775   
H170     H      0.389440000000     0.932940000000     0.209080000000     0.0905562  
H171     H      0.956290000000     0.903190000000     0.276810000000     0.0316039  
H172     H      0.955130000000     0.846910000000     0.276020000000     0.0371138  
H173     H      0.040130000000     0.845780000000     0.226180000000     0.0488403  
H174     H      0.564210000000     0.892230000000     0.213040000000     0.0899533  
H175     H      0.050200000000     0.928820000000     0.224410000000     0.104573   
H176     H      0.029680000000     0.653200000000     0.283030000000     0.0339417  
H177     H      0.027100000000     0.597180000000     0.285720000000     0.0386363  
H178     H      0.472230000000     0.595440000000     0.203850000000     0.0497701  
H179     H      0.472030000000     0.678750000000     0.192690000000     0.1041     
H180     H      0.458700000000     0.642280000000     0.179740000000     0.0902287  
H181     H      0.401050000000     0.728180000000     0.536290000000     0.0309133  
H182     H      0.345400000000     0.729780000000     0.538380000000     0.0348869  
H183     H      0.343030000000     0.781170000000     0.954270000000     0.0484559  
H184     H      0.426570000000     0.783450000000     0.944280000000     0.105677   
H185     H      0.389990000000     0.795240000000     0.930370000000     0.0906449  
H186     H      0.151180000000     0.780720000000     0.969370000000     0.0274918  
H187     H      0.095730000000     0.783850000000     0.971360000000     0.0327999  
H188     H      0.092510000000     0.703560000000     0.528490000000     0.048314   
H189     H      0.175980000000     0.692510000000     0.530900000000     0.105128   
H190     H      0.139310000000     0.679970000000     0.543910000000     0.090337   
H191     H      0.278350000000     0.845020000000     0.534040000000     0.0329423  
H192     H      0.281050000000     0.901070000000     0.532120000000     0.0369924  
H193     H      0.199020000000     0.903740000000     0.977720000000     0.048409   
H194     H      0.188960000000     0.820180000000     0.975100000000     0.102762   
H195     H      0.175320000000     0.856860000000     0.462960000000     0.089162   
H196     H      0.215740000000     0.653480000000     0.963220000000     0.0320467  
H197     H      0.213030000000     0.597460000000     0.965320000000     0.0372399  
H198     H      0.296010000000     0.594870000000     0.518320000000     0.048653   
H199     H      0.306410000000     0.678510000000     0.520150000000     0.103397   
H200     H      0.320120000000     0.641850000000     0.532310000000     0.090055   
H201     H      0.222990000000     0.036050000000     0.902740000000     0.033164   
H202     H      0.223910000000     0.038590000000     0.846980000000     0.0390163  
H203     H      0.276580000000     0.955260000000     0.843550000000     0.0491399  
H204     H      0.291430000000     0.931110000000     0.890040000000     0.090976   
H205     H      0.279740000000     0.944440000000     0.926870000000     0.106462   
H206     H      0.267070000000     0.959950000000     0.594010000000     0.0316331  
H207     H      0.265530000000     0.957540000000     0.649890000000     0.0374827  
H208     H      0.221630000000     0.545850000000     0.652910000000     0.0482657  
H209     H      0.218700000000     0.555930000000     0.569380000000     0.104924   
H210     H      0.208820000000     0.070920000000     0.606150000000     0.090411   
H211     H      0.461090000000     0.716580000000     0.902060000000     0.0319009  
H212     H      0.459290000000     0.718630000000     0.845930000000     0.0383512  
H213     H      0.043920000000     0.769160000000     0.844800000000     0.0496712  
H214     H      0.053940000000     0.769620000000     0.928080000000     0.10401    
H215     H      0.068160000000     0.781760000000     0.891700000000     0.0896658  
H216     H      0.452830000000     0.732820000000     0.594950000000     0.0293461  
H217     H      0.452260000000     0.733420000000     0.651020000000     0.0348763  
H218     H      0.041150000000     0.775920000000     0.651810000000     0.0480892  
H219     H      0.048970000000     0.779840000000     0.568230000000     0.107359   
H220     H      0.065030000000     0.788830000000     0.604700000000     0.0913979  
H221     H      0.093260000000     0.537360000000     0.722460000000     0.0341948  
H222     H      0.149070000000     0.539210000000     0.724280000000     0.0379506  
H223     H      0.150780000000     0.954920000000     0.775470000000     0.0483433  
H224     H      0.067360000000     0.945250000000     0.777850000000     0.104502   
H225     H      0.103890000000     0.931200000000     0.789410000000     0.0904658  
H226     H      0.400500000000     0.541350000000     0.772230000000     0.0340224  
H227     H      0.344490000000     0.543350000000     0.770270000000     0.0388572  
H228     H      0.343000000000     0.957990000000     0.720800000000     0.0493026  
H229     H      0.425820000000     0.946270000000     0.721830000000     0.1058     
H230     H      0.389440000000     0.932940000000     0.709070000000     0.090567   
H231     H      0.956290000000     0.903190000000     0.776820000000     0.0316308  
H232     H      0.955130000000     0.846910000000     0.776020000000     0.0371337  
H233     H      0.040130000000     0.845780000000     0.726180000000     0.0488626  
H234     H      0.564210000000     0.892230000000     0.713040000000     0.0900017  
H235     H      0.050200000000     0.928820000000     0.724410000000     0.104598   
H236     H      0.029680000000     0.653200000000     0.783030000000     0.0339749  
H237     H      0.027100000000     0.597180000000     0.785720000000     0.0386825  
H238     H      0.472230000000     0.595440000000     0.703850000000     0.0498048  
H239     H      0.472030000000     0.678750000000     0.692690000000     0.104115   
H240     H      0.458700000000     0.642280000000     0.679740000000     0.0902753  
H241     H      0.901060000000     0.228180000000     0.036290000000     0.0307956  
H242     H      0.845400000000     0.229780000000     0.038380000000     0.034942   
H243     H      0.843030000000     0.281170000000     0.454270000000     0.0483431  
H244     H      0.926570000000     0.283450000000     0.444290000000     0.105009   
H245     H      0.889990000000     0.295240000000     0.430370000000     0.0902325  
H246     H      0.651180000000     0.280720000000     0.469370000000     0.027256   
H247     H      0.595730000000     0.283850000000     0.471360000000     0.0326916  
H248     H      0.592510000000     0.203550000000     0.028490000000     0.0476094  
H249     H      0.675980000000     0.192510000000     0.030900000000     0.104594   
H250     H      0.639310000000     0.179970000000     0.043910000000     0.0897788  
H251     H      0.778350000000     0.345020000000     0.034040000000     0.032745   
H252     H      0.781060000000     0.401070000000     0.032120000000     0.0368401  
H253     H      0.699020000000     0.403740000000     0.477720000000     0.0482566  
H254     H      0.688960000000     0.320180000000     0.475100000000     0.102367   
H255     H      0.675320000000     0.356860000000     0.962960000000     0.0891135  
H256     H      0.715740000000     0.153480000000     0.463220000000     0.0318306  
H257     H      0.713030000000     0.097460000000     0.465320000000     0.0369559  
H258     H      0.796010000000     0.094870000000     0.018320000000     0.0484714  
H259     H      0.806410000000     0.178510000000     0.020150000000     0.102859   
H260     H      0.820120000000     0.141850000000     0.032310000000     0.0897563  
H261     H      0.722990000000     0.536050000000     0.402740000000     0.0330281  
H262     H      0.723910000000     0.538590000000     0.346980000000     0.0388997  
H263     H      0.776580000000     0.455250000000     0.343550000000     0.0490607  
H264     H      0.791430000000     0.431110000000     0.390040000000     0.0907094  
H265     H      0.779740000000     0.444440000000     0.426870000000     0.106049   
H266     H      0.767070000000     0.459950000000     0.094010000000     0.0315348  
H267     H      0.765530000000     0.457540000000     0.149890000000     0.0374108  
H268     H      0.721630000000     0.045850000000     0.152910000000     0.0481389  
H269     H      0.718700000000     0.055930000000     0.069380000000     0.104496   
H270     H      0.708820000000     0.570920000000     0.106150000000     0.0901664  
H271     H      0.961090000000     0.216580000000     0.402060000000     0.0318758  
H272     H      0.959290000000     0.218630000000     0.345930000000     0.0383753  
H273     H      0.543920000000     0.269160000000     0.344800000000     0.0495111  
H274     H      0.553940000000     0.269620000000     0.428080000000     0.103492   
H275     H      0.568160000000     0.281760000000     0.391700000000     0.0892142  
H276     H      0.952830000000     0.232820000000     0.094950000000     0.0291454  
H277     H      0.952260000000     0.233420000000     0.151020000000     0.034907   
H278     H      0.541150000000     0.275920000000     0.151810000000     0.0481802  
H279     H      0.548970000000     0.279840000000     0.068230000000     0.10576    
H280     H      0.565040000000     0.288830000000     0.104700000000     0.0907523  
H281     H      0.593250000000     0.037370000000     0.222460000000     0.0336224  
H282     H      0.649070000000     0.039210000000     0.224280000000     0.03783    
H283     H      0.650780000000     0.454920000000     0.275470000000     0.048243   
H284     H      0.567360000000     0.445250000000     0.277850000000     0.103657   
H285     H      0.603890000000     0.431200000000     0.289410000000     0.090019   
H286     H      0.900510000000     0.041350000000     0.272230000000     0.0337912  
H287     H      0.844490000000     0.043340000000     0.270270000000     0.0387182  
H288     H      0.843000000000     0.457990000000     0.220800000000     0.0493021  
H289     H      0.925820000000     0.446270000000     0.221830000000     0.105427   
H290     H      0.889440000000     0.432940000000     0.209080000000     0.0903149  
H291     H      0.456290000000     0.403190000000     0.276810000000     0.0316232  
H292     H      0.455130000000     0.346910000000     0.276020000000     0.0372548  
H293     H      0.540140000000     0.345780000000     0.226180000000     0.049027   
H294     H      0.064210000000     0.392230000000     0.213040000000     0.0902753  
H295     H      0.550200000000     0.428820000000     0.224410000000     0.103806   
H296     H      0.529680000000     0.153200000000     0.283030000000     0.0332831  
H297     H      0.527100000000     0.097180000000     0.285720000000     0.0387935  
H298     H      0.972230000000     0.095440000000     0.203850000000     0.0493436  
H299     H      0.972030000000     0.178750000000     0.192690000000     0.103221   
H300     H      0.958700000000     0.142280000000     0.179740000000     0.0897552  
H301     H      0.901060000000     0.228180000000     0.536290000000     0.0308185  
H302     H      0.845400000000     0.229780000000     0.538380000000     0.034857   
H303     H      0.843030000000     0.281170000000     0.954270000000     0.0483959  
H304     H      0.926570000000     0.283450000000     0.944280000000     0.105064   
H305     H      0.889990000000     0.295240000000     0.930370000000     0.0903539  
H306     H      0.651180000000     0.280720000000     0.969370000000     0.0274215  
H307     H      0.595730000000     0.283850000000     0.971360000000     0.0325011  
H308     H      0.592510000000     0.203550000000     0.528490000000     0.0477756  
H309     H      0.675980000000     0.192510000000     0.530900000000     0.105044   
H310     H      0.639310000000     0.179970000000     0.543910000000     0.0900116  
H311     H      0.778350000000     0.345020000000     0.534040000000     0.032888   
H312     H      0.781060000000     0.401070000000     0.532120000000     0.0369035  
H313     H      0.699020000000     0.403740000000     0.977720000000     0.0482417  
H314     H      0.688960000000     0.320180000000     0.975100000000     0.102692   
H315     H      0.675320000000     0.356860000000     0.462960000000     0.0889446  
H316     H      0.715740000000     0.153480000000     0.963220000000     0.0319567  
H317     H      0.713030000000     0.097460000000     0.965320000000     0.037094   
H318     H      0.796010000000     0.094870000000     0.518320000000     0.048555   
H319     H      0.806410000000     0.178510000000     0.520150000000     0.10328    
H320     H      0.820120000000     0.141850000000     0.532310000000     0.0899581  
H321     H      0.722990000000     0.536050000000     0.902740000000     0.0330906  
H322     H      0.723910000000     0.538590000000     0.846980000000     0.038933   
H323     H      0.776580000000     0.455250000000     0.843550000000     0.0490936  
H324     H      0.791430000000     0.431110000000     0.890040000000     0.0908504  
H325     H      0.779740000000     0.444440000000     0.926870000000     0.106378   
H326     H      0.767070000000     0.459950000000     0.594010000000     0.0315981  
H327     H      0.765530000000     0.457540000000     0.649890000000     0.0374473  
H328     H      0.721630000000     0.045850000000     0.652910000000     0.0481721  
H329     H      0.718700000000     0.055930000000     0.569380000000     0.10482    
H330     H      0.708820000000     0.570920000000     0.606150000000     0.0902966  
H331     H      0.961090000000     0.216580000000     0.902060000000     0.031992   
H332     H      0.959290000000     0.218630000000     0.845930000000     0.0384128  
H333     H      0.543920000000     0.269160000000     0.844800000000     0.0495256  
H334     H      0.553940000000     0.269620000000     0.928080000000     0.103652   
H335     H      0.568160000000     0.281760000000     0.891700000000     0.0892842  
H336     H      0.952830000000     0.232820000000     0.594950000000     0.0292638  
H337     H      0.952260000000     0.233420000000     0.651020000000     0.0349213  
H338     H      0.541150000000     0.275920000000     0.651810000000     0.0482364  
H339     H      0.548970000000     0.279840000000     0.568230000000     0.106036   
H340     H      0.565040000000     0.288830000000     0.604700000000     0.090906   
H341     H      0.593250000000     0.037370000000     0.722460000000     0.0336614  
H342     H      0.649070000000     0.039210000000     0.724280000000     0.0378345  
H343     H      0.650780000000     0.454920000000     0.775470000000     0.048251   
H344     H      0.567360000000     0.445250000000     0.777850000000     0.103676   
H345     H      0.603890000000     0.431200000000     0.789410000000     0.0900816  
H346     H      0.900510000000     0.041350000000     0.772230000000     0.033838   
H347     H      0.844490000000     0.043340000000     0.770270000000     0.0387407  
H348     H      0.843000000000     0.457990000000     0.720800000000     0.0493256  
H349     H      0.925820000000     0.446270000000     0.721830000000     0.105451   
H350     H      0.889440000000     0.432940000000     0.709070000000     0.090325   
H351     H      0.456290000000     0.403190000000     0.776820000000     0.0316498  
H352     H      0.455130000000     0.346910000000     0.776020000000     0.0372743  
H353     H      0.540140000000     0.345780000000     0.726180000000     0.0490489  
H354     H      0.064210000000     0.392230000000     0.713040000000     0.0903235  
H355     H      0.550200000000     0.428820000000     0.724410000000     0.10383    
H356     H      0.529680000000     0.153200000000     0.783030000000     0.0333168  
H357     H      0.527100000000     0.097180000000     0.785720000000     0.0388398  
H358     H      0.972230000000     0.095440000000     0.703850000000     0.0493769  
H359     H      0.972030000000     0.178750000000     0.692690000000     0.103235   
H360     H      0.958700000000     0.142280000000     0.679740000000     0.0898004  
H361     H      0.901060000000     0.728180000000     0.036290000000     0.0308243  
H362     H      0.845400000000     0.729780000000     0.038380000000     0.034939   
H363     H      0.843030000000     0.781170000000     0.454270000000     0.048345   
H364     H      0.926570000000     0.783450000000     0.444290000000     0.105022   
H365     H      0.889990000000     0.795240000000     0.430370000000     0.0902459  
H366     H      0.651180000000     0.780720000000     0.469370000000     0.0272614  
H367     H      0.595730000000     0.783850000000     0.471360000000     0.032703   
H368     H      0.592510000000     0.703560000000     0.028490000000     0.0476363  
H369     H      0.675980000000     0.692510000000     0.030900000000     0.104596   
H370     H      0.639310000000     0.679970000000     0.043910000000     0.0897907  
H371     H      0.778350000000     0.845020000000     0.034040000000     0.0327512  
H372     H      0.781060000000     0.901070000000     0.032120000000     0.0368621  
H373     H      0.699020000000     0.903740000000     0.477720000000     0.0482796  
H374     H      0.688960000000     0.820180000000     0.475100000000     0.102374   
H375     H      0.675320000000     0.856860000000     0.962960000000     0.0891408  
H376     H      0.715740000000     0.653480000000     0.463220000000     0.031843   
H377     H      0.713030000000     0.597460000000     0.465320000000     0.0369834  
H378     H      0.796010000000     0.594870000000     0.018320000000     0.0484917  
H379     H      0.806410000000     0.678510000000     0.020150000000     0.102941   
H380     H      0.820120000000     0.641850000000     0.032310000000     0.0897481  
H381     H      0.722990000000     0.036050000000     0.402740000000     0.0330147  
H382     H      0.723910000000     0.038590000000     0.346980000000     0.0389029  
H383     H      0.776580000000     0.955260000000     0.343550000000     0.0490953  
H384     H      0.791430000000     0.931110000000     0.390040000000     0.0907483  
H385     H      0.779740000000     0.944440000000     0.426870000000     0.106071   
H386     H      0.767070000000     0.959950000000     0.094010000000     0.0315265  
H387     H      0.765530000000     0.957540000000     0.149890000000     0.0373939  
H388     H      0.721630000000     0.545850000000     0.152910000000     0.0481431  
H389     H      0.718700000000     0.555930000000     0.069380000000     0.104509   
H390     H      0.708820000000     0.070920000000     0.106150000000     0.090142   
H391     H      0.961090000000     0.716580000000     0.402060000000     0.031886   
H392     H      0.959290000000     0.718630000000     0.345930000000     0.0383811  
H393     H      0.543920000000     0.769160000000     0.344800000000     0.0495156  
H394     H      0.553940000000     0.769620000000     0.428080000000     0.103499   
H395     H      0.568160000000     0.781760000000     0.391700000000     0.0892252  
H396     H      0.952830000000     0.732820000000     0.094950000000     0.029152   
H397     H      0.952260000000     0.733420000000     0.151020000000     0.0349119  
H398     H      0.541150000000     0.775920000000     0.151810000000     0.0481838  
H399     H      0.548970000000     0.779840000000     0.068230000000     0.105769   
H400     H      0.565040000000     0.788830000000     0.104700000000     0.0907646  
H401     H      0.593250000000     0.537360000000     0.222460000000     0.0336243  
H402     H      0.649070000000     0.539210000000     0.224280000000     0.0378076  
H403     H      0.650780000000     0.954920000000     0.275470000000     0.0482555  
H404     H      0.567360000000     0.945250000000     0.277850000000     0.10369    
H405     H      0.603890000000     0.931200000000     0.289410000000     0.0900611  
H406     H      0.900510000000     0.541350000000     0.272230000000     0.0337467  
H407     H      0.844490000000     0.543350000000     0.270270000000     0.0387645  
H408     H      0.843000000000     0.957990000000     0.220800000000     0.0492498  
H409     H      0.925820000000     0.946270000000     0.221830000000     0.105445   
H410     H      0.889440000000     0.932940000000     0.209080000000     0.0903436  
H411     H      0.456290000000     0.903190000000     0.276810000000     0.0316448  
H412     H      0.455130000000     0.846910000000     0.276020000000     0.0372653  
H413     H      0.540140000000     0.845780000000     0.226180000000     0.0490336  
H414     H      0.064210000000     0.892230000000     0.213040000000     0.0903028  
H415     H      0.550200000000     0.928820000000     0.224410000000     0.103849   
H416     H      0.529680000000     0.653200000000     0.283030000000     0.0332905  
H417     H      0.527100000000     0.597180000000     0.285720000000     0.0388256  
H418     H      0.972230000000     0.595440000000     0.203850000000     0.0493886  
H419     H      0.972030000000     0.678750000000     0.192690000000     0.103228   
H420     H      0.958700000000     0.642280000000     0.179740000000     0.089782   
H421     H      0.901060000000     0.728180000000     0.536290000000     0.0308475  
H422     H      0.845400000000     0.729780000000     0.538380000000     0.0348537  
H423     H      0.843030000000     0.781170000000     0.954270000000     0.0483979  
H424     H      0.926570000000     0.783450000000     0.944280000000     0.105077   
H425     H      0.889990000000     0.795240000000     0.930370000000     0.0903677  
H426     H      0.651180000000     0.780720000000     0.969370000000     0.0274275  
H427     H      0.595730000000     0.783850000000     0.971360000000     0.0325115  
H428     H      0.592510000000     0.703560000000     0.528490000000     0.0478036  
H429     H      0.675980000000     0.692510000000     0.530900000000     0.105048   
H430     H      0.639310000000     0.679970000000     0.543910000000     0.090025   
H431     H      0.778350000000     0.845020000000     0.534040000000     0.0328947  
H432     H      0.781060000000     0.901070000000     0.532120000000     0.0369261  
H433     H      0.699020000000     0.903740000000     0.977720000000     0.0482642  
H434     H      0.688960000000     0.820180000000     0.975100000000     0.1027     
H435     H      0.675320000000     0.856860000000     0.462960000000     0.0889715  
H436     H      0.715740000000     0.653480000000     0.963220000000     0.0319697  
H437     H      0.713030000000     0.597460000000     0.965320000000     0.0371226  
H438     H      0.796010000000     0.594870000000     0.518320000000     0.0485762  
H439     H      0.806410000000     0.678510000000     0.520150000000     0.103364   
H440     H      0.820120000000     0.641850000000     0.532310000000     0.0899514  
H441     H      0.722990000000     0.036050000000     0.902740000000     0.0330767  
H442     H      0.723910000000     0.038590000000     0.846980000000     0.0389361  
H443     H      0.776580000000     0.955260000000     0.843550000000     0.0491284  
H444     H      0.791430000000     0.931110000000     0.890040000000     0.0908898  
H445     H      0.779740000000     0.944440000000     0.926870000000     0.106401   
H446     H      0.767070000000     0.959950000000     0.594010000000     0.0315896  
H447     H      0.765530000000     0.957540000000     0.649890000000     0.0374302  
H448     H      0.721630000000     0.545850000000     0.652910000000     0.0481765  
H449     H      0.718700000000     0.555930000000     0.569380000000     0.104836   
H450     H      0.708820000000     0.070920000000     0.606150000000     0.0902709  
H451     H      0.961090000000     0.716580000000     0.902060000000     0.0320029  
H452     H      0.959290000000     0.718630000000     0.845930000000     0.0384188  
H453     H      0.543920000000     0.769160000000     0.844800000000     0.0495302  
H454     H      0.553940000000     0.769620000000     0.928080000000     0.103659   
H455     H      0.568160000000     0.781760000000     0.891700000000     0.0892954  
H456     H      0.952830000000     0.732820000000     0.594950000000     0.029271   
H457     H      0.952260000000     0.733420000000     0.651020000000     0.0349263  
H458     H      0.541150000000     0.775920000000     0.651810000000     0.0482403  
H459     H      0.548970000000     0.779840000000     0.568230000000     0.106046   
H460     H      0.565040000000     0.788830000000     0.604700000000     0.0909189  
H461     H      0.593250000000     0.537360000000     0.722460000000     0.0336635  
H462     H      0.649070000000     0.539210000000     0.724280000000     0.037812   
H463     H      0.650780000000     0.954920000000     0.775470000000     0.0482635  
H464     H      0.567360000000     0.945250000000     0.777850000000     0.10371    
H465     H      0.603890000000     0.931200000000     0.789410000000     0.0901239  
H466     H      0.900510000000     0.541350000000     0.772230000000     0.0337931  
H467     H      0.844490000000     0.543350000000     0.770270000000     0.0387879  
H468     H      0.843000000000     0.957990000000     0.720800000000     0.0492726  
H469     H      0.925820000000     0.946270000000     0.721830000000     0.10547    
H470     H      0.889440000000     0.932940000000     0.709070000000     0.0903541  
H471     H      0.456290000000     0.903190000000     0.776820000000     0.0316718  
H472     H      0.455130000000     0.846910000000     0.776020000000     0.0372849  
H473     H      0.540140000000     0.845780000000     0.726180000000     0.0490557  
H474     H      0.064210000000     0.892230000000     0.713040000000     0.0903514  
H475     H      0.550200000000     0.928820000000     0.724410000000     0.103874   
H476     H      0.529680000000     0.653200000000     0.783030000000     0.0333245  
H477     H      0.527100000000     0.597180000000     0.785720000000     0.0388727  
H478     H      0.972230000000     0.595440000000     0.703850000000     0.0494228  
H479     H      0.972030000000     0.678750000000     0.692690000000     0.103243   
H480     H      0.958700000000     0.642280000000     0.679740000000     0.0898279  
N1       N      0.340280000000     0.255660000000     0.496410000000    -0.168231   
N2       N      0.404580000000     0.255200000000     0.494950000000    -0.196189   
N3       N      0.402730000000     0.284140000000     0.447660000000    -0.213591   
N4       N      0.090280000000     0.244040000000     0.000370000000    -0.16964    
N5       N      0.154560000000     0.241760000000     0.999830000000    -0.195355   
N6       N      0.152210000000     0.196350000000     0.031670000000    -0.213138   
N7       N      0.240480000000     0.406260000000     0.504270000000    -0.168212   
N8       N      0.238450000000     0.341850000000     0.505010000000    -0.195651   
N9       N      0.192210000000     0.344070000000     0.474600000000    -0.213067   
N10      N      0.254070000000     0.092290000000     0.992510000000    -0.167243   
N11      N      0.256190000000     0.156670000000     0.991470000000    -0.195542   
N12      N      0.303040000000     0.154600000000     0.020920000000    -0.212621   
N13      N      0.250280000000     0.497020000000     0.341360000000    -0.168286   
N14      N      0.250650000000     0.495020000000     0.405630000000    -0.196415   
N15      N      0.280200000000     0.448120000000     0.403060000000    -0.213483   
N16      N      0.243530000000     0.001620000000     0.155260000000    -0.168479   
N17      N      0.243600000000     0.003470000000     0.091070000000    -0.196957   
N18      N      0.218360000000     0.052800000000     0.093280000000    -0.213606   
N19      N      0.501280000000     0.244480000000     0.341450000000    -0.167943   
N20      N      0.502510000000     0.243350000000     0.405720000000    -0.19659    
N21      N      0.050570000000     0.270920000000     0.404240000000    -0.212702   
N22      N      0.996810000000     0.254550000000     0.155300000000    -0.169857   
N23      N      0.996510000000     0.255670000000     0.091020000000    -0.198899   
N24      N      0.046400000000     0.279870000000     0.092190000000    -0.214026   
N25      N      0.153770000000     0.997220000000     0.250200000000    -0.168418   
N26      N      0.089530000000     0.996100000000     0.249610000000    -0.195843   
N27      N      0.091200000000     0.448600000000     0.278410000000    -0.213565   
N28      N      0.339830000000     0.500780000000     0.245360000000    -0.168238   
N29      N      0.404080000000     0.499220000000     0.246430000000    -0.196328   
N30      N      0.402190000000     0.450480000000     0.219780000000    -0.212866   
N31      N      0.497530000000     0.342450000000     0.250960000000    -0.168836   
N32      N      0.498060000000     0.406770000000     0.250540000000    -0.197213   
N33      N      0.046520000000     0.405000000000     0.223460000000    -0.213333   
N34      N      0.999170000000     0.092480000000     0.245120000000    -0.170389   
N35      N      0.000880000000     0.156660000000     0.242950000000    -0.195032   
N36      N      0.470640000000     0.154950000000     0.196510000000    -0.212746   
N37      N      0.340280000000     0.255660000000     0.996410000000    -0.167596   
N38      N      0.404580000000     0.255200000000     0.994950000000    -0.195199   
N39      N      0.402730000000     0.284140000000     0.947660000000    -0.213558   
N40      N      0.090280000000     0.244040000000     0.500370000000    -0.16881    
N41      N      0.154560000000     0.241760000000     0.499830000000    -0.196194   
N42      N      0.152210000000     0.196350000000     0.531670000000    -0.213308   
N43      N      0.240480000000     0.406260000000     0.004270000000    -0.168813   
N44      N      0.238450000000     0.341850000000     0.005010000000    -0.196295   
N45      N      0.192210000000     0.344070000000     0.974600000000    -0.213154   
N46      N      0.254070000000     0.092290000000     0.492510000000    -0.168237   
N47      N      0.256190000000     0.156670000000     0.491470000000    -0.196159   
N48      N      0.303040000000     0.154600000000     0.520920000000    -0.212699   
N49      N      0.250280000000     0.497020000000     0.841360000000    -0.168275   
N50      N      0.250650000000     0.495020000000     0.905630000000    -0.196382   
N51      N      0.280200000000     0.448120000000     0.903060000000    -0.213501   
N52      N      0.243530000000     0.001620000000     0.655260000000    -0.168468   
N53      N      0.243600000000     0.003470000000     0.591070000000    -0.196944   
N54      N      0.218360000000     0.052800000000     0.593280000000    -0.213622   
N55      N      0.501280000000     0.244480000000     0.841450000000    -0.167933   
N56      N      0.502510000000     0.243350000000     0.905720000000    -0.196565   
N57      N      0.050570000000     0.270920000000     0.904240000000    -0.212731   
N58      N      0.996810000000     0.254550000000     0.655300000000    -0.169844   
N59      N      0.996510000000     0.255670000000     0.591020000000    -0.198871   
N60      N      0.046400000000     0.279870000000     0.592190000000    -0.214047   
N61      N      0.153770000000     0.997220000000     0.750200000000    -0.168431   
N62      N      0.089530000000     0.996100000000     0.749610000000    -0.195821   
N63      N      0.091200000000     0.448600000000     0.778420000000    -0.213569   
N64      N      0.339830000000     0.500780000000     0.745360000000    -0.168233   
N65      N      0.404080000000     0.499220000000     0.746420000000    -0.196325   
N66      N      0.402190000000     0.450480000000     0.719780000000    -0.21284    
N67      N      0.497530000000     0.342450000000     0.750960000000    -0.168831   
N68      N      0.498060000000     0.406770000000     0.750540000000    -0.197208   
N69      N      0.046520000000     0.405000000000     0.723460000000    -0.213331   
N70      N      0.999170000000     0.092480000000     0.745120000000    -0.170379   
N71      N      0.000880000000     0.156660000000     0.742950000000    -0.195031   
N72      N      0.470640000000     0.154950000000     0.696510000000    -0.212747   
N73      N      0.340280000000     0.755660000000     0.496410000000    -0.168237   
N74      N      0.404580000000     0.755200000000     0.494950000000    -0.19612    
N75      N      0.402730000000     0.784140000000     0.447660000000    -0.213587   
N76      N      0.090280000000     0.744040000000     0.000370000000    -0.169634   
N77      N      0.154560000000     0.741760000000     0.999830000000    -0.195353   
N78      N      0.152210000000     0.696350000000     0.031670000000    -0.213141   
N79      N      0.240480000000     0.906260000000     0.504270000000    -0.168208   
N80      N      0.238450000000     0.841850000000     0.505010000000    -0.195644   
N81      N      0.192210000000     0.844070000000     0.474600000000    -0.213062   
N82      N      0.254070000000     0.592290000000     0.992510000000    -0.167237   
N83      N      0.256190000000     0.656670000000     0.991470000000    -0.195534   
N84      N      0.303040000000     0.654610000000     0.020920000000    -0.212627   
N85      N      0.250280000000     0.997020000000     0.341360000000    -0.168097   
N86      N      0.250650000000     0.995020000000     0.405630000000    -0.196134   
N87      N      0.280200000000     0.948120000000     0.403060000000    -0.213481   
N88      N      0.243530000000     0.501620000000     0.155260000000    -0.168308   
N89      N      0.243600000000     0.503470000000     0.091070000000    -0.196796   
N90      N      0.218360000000     0.552800000000     0.093280000000    -0.21361    
N91      N      0.501280000000     0.744480000000     0.341450000000    -0.167943   
N92      N      0.502510000000     0.743350000000     0.405720000000    -0.19659    
N93      N      0.050570000000     0.770920000000     0.404240000000    -0.212702   
N94      N      0.996810000000     0.754550000000     0.155300000000    -0.169856   
N95      N      0.996510000000     0.755670000000     0.091020000000    -0.198897   
N96      N      0.046400000000     0.779870000000     0.092190000000    -0.214025   
N97      N      0.153770000000     0.497220000000     0.250200000000    -0.168607   
N98      N      0.089530000000     0.496100000000     0.249610000000    -0.196023   
N99      N      0.091200000000     0.948600000000     0.278410000000    -0.21357    
N100     N      0.339830000000     0.000780000000     0.245360000000    -0.168466   
N101     N      0.404080000000     0.999220000000     0.246430000000    -0.196086   
N102     N      0.402190000000     0.950480000000     0.219780000000    -0.212845   
N103     N      0.497530000000     0.842450000000     0.250960000000    -0.16884    
N104     N      0.498060000000     0.906770000000     0.250540000000    -0.197212   
N105     N      0.046520000000     0.905000000000     0.223460000000    -0.213334   
N106     N      0.999170000000     0.592480000000     0.245120000000    -0.170374   
N107     N      0.000880000000     0.656660000000     0.242950000000    -0.195016   
N108     N      0.470640000000     0.654950000000     0.196510000000    -0.212745   
N109     N      0.340280000000     0.755660000000     0.996410000000    -0.1676     
N110     N      0.404580000000     0.755200000000     0.994950000000    -0.195127   
N111     N      0.402730000000     0.784140000000     0.947660000000    -0.213554   
N112     N      0.090280000000     0.744040000000     0.500370000000    -0.168801   
N113     N      0.154560000000     0.741760000000     0.499830000000    -0.196195   
N114     N      0.152210000000     0.696350000000     0.531670000000    -0.213311   
N115     N      0.240480000000     0.906260000000     0.004270000000    -0.168811   
N116     N      0.238450000000     0.841850000000     0.005010000000    -0.196291   
N117     N      0.192210000000     0.844070000000     0.974600000000    -0.213149   
N118     N      0.254070000000     0.592290000000     0.492510000000    -0.168238   
N119     N      0.256190000000     0.656670000000     0.491470000000    -0.196154   
N120     N      0.303040000000     0.654610000000     0.520920000000    -0.212706   
N121     N      0.250280000000     0.997020000000     0.841360000000    -0.168084   
N122     N      0.250650000000     0.995020000000     0.905630000000    -0.196097   
N123     N      0.280200000000     0.948120000000     0.903060000000    -0.213499   
N124     N      0.243530000000     0.501620000000     0.655260000000    -0.168294   
N125     N      0.243600000000     0.503470000000     0.591070000000    -0.196779   
N126     N      0.218360000000     0.552800000000     0.593280000000    -0.213626   
N127     N      0.501280000000     0.744480000000     0.841450000000    -0.167933   
N128     N      0.502510000000     0.743350000000     0.905720000000    -0.196566   
N129     N      0.050570000000     0.770920000000     0.904240000000    -0.21273    
N130     N      0.996810000000     0.754550000000     0.655300000000    -0.169844   
N131     N      0.996510000000     0.755670000000     0.591020000000    -0.198868   
N132     N      0.046400000000     0.779870000000     0.592190000000    -0.214046   
N133     N      0.153770000000     0.497220000000     0.750200000000    -0.168623   
N134     N      0.089530000000     0.496100000000     0.749610000000    -0.196002   
N135     N      0.091200000000     0.948600000000     0.778420000000    -0.213573   
N136     N      0.339830000000     0.000780000000     0.745360000000    -0.168465   
N137     N      0.404080000000     0.999220000000     0.746420000000    -0.196081   
N138     N      0.402190000000     0.950480000000     0.719780000000    -0.212819   
N139     N      0.497530000000     0.842450000000     0.750960000000    -0.168835   
N140     N      0.498060000000     0.906770000000     0.750540000000    -0.197207   
N141     N      0.046520000000     0.905000000000     0.723460000000    -0.213332   
N142     N      0.999170000000     0.592480000000     0.745120000000    -0.170364   
N143     N      0.000880000000     0.656660000000     0.742950000000    -0.195015   
N144     N      0.470640000000     0.654950000000     0.696510000000    -0.212747   
N145     N      0.840280000000     0.255660000000     0.496410000000    -0.168253   
N146     N      0.904580000000     0.255200000000     0.494950000000    -0.196108   
N147     N      0.902730000000     0.284140000000     0.447660000000    -0.213521   
N148     N      0.590280000000     0.244040000000     0.000370000000    -0.169956   
N149     N      0.654560000000     0.241760000000     0.999830000000    -0.195345   
N150     N      0.652210000000     0.196350000000     0.031670000000    -0.21313    
N151     N      0.740470000000     0.406260000000     0.504270000000    -0.16823    
N152     N      0.738450000000     0.341850000000     0.505010000000    -0.195649   
N153     N      0.692210000000     0.344070000000     0.474600000000    -0.21306    
N154     N      0.754070000000     0.092290000000     0.992510000000    -0.167261   
N155     N      0.756190000000     0.156670000000     0.991470000000    -0.195542   
N156     N      0.803040000000     0.154600000000     0.020920000000    -0.212618   
N157     N      0.750280000000     0.497020000000     0.341360000000    -0.168289   
N158     N      0.750650000000     0.495020000000     0.405630000000    -0.196434   
N159     N      0.780200000000     0.448120000000     0.403060000000    -0.213493   
N160     N      0.743530000000     0.001620000000     0.155260000000    -0.16852    
N161     N      0.743600000000     0.003470000000     0.091070000000    -0.19696    
N162     N      0.718360000000     0.052800000000     0.093280000000    -0.213609   
N163     N      0.001280000000     0.244480000000     0.341450000000    -0.166276   
N164     N      0.002510000000     0.243350000000     0.405720000000    -0.194813   
N165     N      0.550570000000     0.270920000000     0.404240000000    -0.212676   
N166     N      0.496810000000     0.254550000000     0.155300000000    -0.168269   
N167     N      0.496510000000     0.255670000000     0.091020000000    -0.196568   
N168     N      0.546400000000     0.279870000000     0.092190000000    -0.213719   
N169     N      0.653770000000     0.997220000000     0.250200000000    -0.168447   
N170     N      0.589530000000     0.996100000000     0.249610000000    -0.196141   
N171     N      0.591200000000     0.448600000000     0.278410000000    -0.21352    
N172     N      0.839830000000     0.500780000000     0.245360000000    -0.168236   
N173     N      0.904080000000     0.499220000000     0.246430000000    -0.19628    
N174     N      0.902190000000     0.450480000000     0.219780000000    -0.212858   
N175     N      0.997530000000     0.342450000000     0.250960000000    -0.170498   
N176     N      0.998060000000     0.406770000000     0.250540000000    -0.19864    
N177     N      0.546520000000     0.405000000000     0.223460000000    -0.213121   
N178     N      0.499170000000     0.092480000000     0.245120000000    -0.168429   
N179     N      0.500880000000     0.156660000000     0.242950000000    -0.197159   
N180     N      0.970640000000     0.154950000000     0.196510000000    -0.212322   
N181     N      0.840280000000     0.255660000000     0.996410000000    -0.167618   
N182     N      0.904580000000     0.255200000000     0.994950000000    -0.195119   
N183     N      0.902730000000     0.284140000000     0.947660000000    -0.213488   
N184     N      0.590280000000     0.244040000000     0.500370000000    -0.169125   
N185     N      0.654560000000     0.241760000000     0.499830000000    -0.196186   
N186     N      0.652210000000     0.196350000000     0.531670000000    -0.2133     
N187     N      0.740470000000     0.406260000000     0.004270000000    -0.168831   
N188     N      0.738450000000     0.341850000000     0.005010000000    -0.196294   
N189     N      0.692210000000     0.344070000000     0.974600000000    -0.213147   
N190     N      0.754070000000     0.092290000000     0.492510000000    -0.168256   
N191     N      0.756190000000     0.156670000000     0.491470000000    -0.19616    
N192     N      0.803040000000     0.154600000000     0.520920000000    -0.212696   
N193     N      0.750280000000     0.497020000000     0.841360000000    -0.168278   
N194     N      0.750650000000     0.495020000000     0.905630000000    -0.196401   
N195     N      0.780200000000     0.448120000000     0.903060000000    -0.213511   
N196     N      0.743530000000     0.001620000000     0.655260000000    -0.168509   
N197     N      0.743600000000     0.003470000000     0.591070000000    -0.196947   
N198     N      0.718360000000     0.052800000000     0.593280000000    -0.213624   
N199     N      0.001280000000     0.244480000000     0.841450000000    -0.166269   
N200     N      0.002510000000     0.243350000000     0.905720000000    -0.194792   
N201     N      0.550570000000     0.270920000000     0.904240000000    -0.212704   
N202     N      0.496810000000     0.254550000000     0.655300000000    -0.168255   
N203     N      0.496510000000     0.255670000000     0.591020000000    -0.196536   
N204     N      0.546400000000     0.279870000000     0.592190000000    -0.21374    
N205     N      0.653770000000     0.997220000000     0.750200000000    -0.16846    
N206     N      0.589530000000     0.996100000000     0.749610000000    -0.196118   
N207     N      0.591200000000     0.448600000000     0.778420000000    -0.213523   
N208     N      0.839830000000     0.500780000000     0.745360000000    -0.168231   
N209     N      0.904080000000     0.499220000000     0.746420000000    -0.196278   
N210     N      0.902190000000     0.450480000000     0.719780000000    -0.212832   
N211     N      0.997530000000     0.342450000000     0.750960000000    -0.170493   
N212     N      0.998060000000     0.406770000000     0.750540000000    -0.198635   
N213     N      0.546520000000     0.405000000000     0.723460000000    -0.213119   
N214     N      0.499170000000     0.092480000000     0.745120000000    -0.16842    
N215     N      0.500880000000     0.156660000000     0.742950000000    -0.197159   
N216     N      0.970640000000     0.154950000000     0.696510000000    -0.212323   
N217     N      0.840280000000     0.755660000000     0.496410000000    -0.168259   
N218     N      0.904580000000     0.755200000000     0.494950000000    -0.196039   
N219     N      0.902730000000     0.784140000000     0.447660000000    -0.213516   
N220     N      0.590280000000     0.744040000000     0.000370000000    -0.16995    
N221     N      0.654560000000     0.741760000000     0.999830000000    -0.195343   
N222     N      0.652210000000     0.696350000000     0.031670000000    -0.213132   
N223     N      0.740470000000     0.906260000000     0.504270000000    -0.168226   
N224     N      0.738450000000     0.841850000000     0.505010000000    -0.195642   
N225     N      0.692210000000     0.844070000000     0.474600000000    -0.213055   
N226     N      0.754070000000     0.592290000000     0.992510000000    -0.167255   
N227     N      0.756190000000     0.656670000000     0.991470000000    -0.195534   
N228     N      0.803040000000     0.654610000000     0.020920000000    -0.212625   
N229     N      0.750280000000     0.997020000000     0.341360000000    -0.168099   
N230     N      0.750650000000     0.995020000000     0.405630000000    -0.196152   
N231     N      0.780200000000     0.948120000000     0.403060000000    -0.213491   
N232     N      0.743530000000     0.501620000000     0.155260000000    -0.168349   
N233     N      0.743600000000     0.503470000000     0.091070000000    -0.1968     
N234     N      0.718360000000     0.552800000000     0.093280000000    -0.213612   
N235     N      0.001280000000     0.744480000000     0.341450000000    -0.166276   
N236     N      0.002510000000     0.743350000000     0.405720000000    -0.194814   
N237     N      0.550570000000     0.770920000000     0.404240000000    -0.212675   
N238     N      0.496810000000     0.754550000000     0.155300000000    -0.168269   
N239     N      0.496510000000     0.755670000000     0.091020000000    -0.196565   
N240     N      0.546400000000     0.779870000000     0.092190000000    -0.213718   
N241     N      0.653770000000     0.497220000000     0.250200000000    -0.168637   
N242     N      0.589530000000     0.496100000000     0.249610000000    -0.196322   
N243     N      0.591200000000     0.948600000000     0.278410000000    -0.213525   
N244     N      0.839830000000     0.000780000000     0.245360000000    -0.168463   
N245     N      0.904080000000     0.999220000000     0.246430000000    -0.196039   
N246     N      0.902190000000     0.950480000000     0.219780000000    -0.212837   
N247     N      0.997530000000     0.842450000000     0.250960000000    -0.1705     
N248     N      0.998060000000     0.906770000000     0.250540000000    -0.198638   
N249     N      0.546520000000     0.905000000000     0.223460000000    -0.213123   
N250     N      0.499170000000     0.592480000000     0.245120000000    -0.168412   
N251     N      0.500880000000     0.656660000000     0.242950000000    -0.197147   
N252     N      0.970640000000     0.654950000000     0.196510000000    -0.212321   
N253     N      0.840280000000     0.755660000000     0.996410000000    -0.167622   
N254     N      0.904580000000     0.755200000000     0.994950000000    -0.195047   
N255     N      0.902730000000     0.784140000000     0.947660000000    -0.213483   
N256     N      0.590280000000     0.744040000000     0.500370000000    -0.169116   
N257     N      0.654560000000     0.741760000000     0.499830000000    -0.196187   
N258     N      0.652210000000     0.696350000000     0.531670000000    -0.213303   
N259     N      0.740470000000     0.906260000000     0.004270000000    -0.168829   
N260     N      0.738450000000     0.841850000000     0.005010000000    -0.196289   
N261     N      0.692210000000     0.844070000000     0.974600000000    -0.213142   
N262     N      0.754070000000     0.592290000000     0.492510000000    -0.168257   
N263     N      0.756190000000     0.656670000000     0.491470000000    -0.196155   
N264     N      0.803040000000     0.654610000000     0.520920000000    -0.212703   
N265     N      0.750280000000     0.997020000000     0.841360000000    -0.168086   
N266     N      0.750650000000     0.995020000000     0.905630000000    -0.196116   
N267     N      0.780200000000     0.948120000000     0.903060000000    -0.213509   
N268     N      0.743530000000     0.501620000000     0.655260000000    -0.168335   
N269     N      0.743600000000     0.503470000000     0.591070000000    -0.196783   
N270     N      0.718360000000     0.552800000000     0.593280000000    -0.213628   
N271     N      0.001280000000     0.744480000000     0.841450000000    -0.166269   
N272     N      0.002510000000     0.743350000000     0.905720000000    -0.194793   
N273     N      0.550570000000     0.770920000000     0.904240000000    -0.212704   
N274     N      0.496810000000     0.754550000000     0.655300000000    -0.168255   
N275     N      0.496510000000     0.755670000000     0.591020000000    -0.196533   
N276     N      0.546400000000     0.779870000000     0.592190000000    -0.213739   
N277     N      0.653770000000     0.497220000000     0.750200000000    -0.168652   
N278     N      0.589530000000     0.496100000000     0.749610000000    -0.196302   
N279     N      0.591200000000     0.948600000000     0.778420000000    -0.213528   
N280     N      0.839830000000     0.000780000000     0.745360000000    -0.168462   
N281     N      0.904080000000     0.999220000000     0.746420000000    -0.196034   
N282     N      0.902190000000     0.950480000000     0.719780000000    -0.212811   
N283     N      0.997530000000     0.842450000000     0.750960000000    -0.170495   
N284     N      0.998060000000     0.906770000000     0.750540000000    -0.198633   
N285     N      0.546520000000     0.905000000000     0.723460000000    -0.21312    
N286     N      0.499170000000     0.592480000000     0.745120000000    -0.168402   
N287     N      0.500880000000     0.656660000000     0.742950000000    -0.197146   
N288     N      0.970640000000     0.654950000000     0.696510000000    -0.212322   
O1       O      0.001460000000     0.046850000000     0.272200000000    -0.385514   
O2       O      0.991490000000     0.453440000000     0.274620000000    -0.396511   
O3       O      0.042890000000     0.494950000000     0.274560000000    -0.393837   
O4       O      0.449710000000     0.005070000000     0.272440000000    -0.395489   
O5       O      0.450670000000     0.995620000000     0.221690000000    -0.39862    
O6       O      0.044040000000     0.501870000000     0.223410000000    -0.395251   
O7       O      0.500560000000     0.452270000000     0.223790000000    -0.402796   
O8       O      0.494190000000     0.045510000000     0.221160000000    -0.39678    
O9       O      0.474100000000     0.202090000000     0.243970000000    -0.399147   
O10      O      0.472330000000     0.295560000000     0.253550000000    -0.392425   
O11      O      0.471960000000     0.252300000000     0.202150000000    -0.395408   
O12      O      0.474350000000     0.243630000000     0.295660000000    -0.39291    
O13      O      0.025500000000     0.249890000000     0.294600000000    -0.397254   
O14      O      0.023530000000     0.251570000000     0.200980000000    -0.392174   
O15      O      0.023560000000     0.296610000000     0.247860000000    -0.396925   
O16      O      0.025600000000     0.203180000000     0.247610000000    -0.399425   
O17      O      0.293950000000     0.474650000000     0.243610000000    -0.398074   
O18      O      0.200770000000     0.472540000000     0.251730000000    -0.394131   
O19      O      0.244600000000     0.474720000000     0.200940000000    -0.395359   
O20      O      0.251870000000     0.472500000000     0.294350000000    -0.395122   
O21      O      0.245380000000     0.023710000000     0.295770000000    -0.395159   
O22      O      0.245340000000     0.026390000000     0.202100000000    -0.394456   
O23      O      0.199300000000     0.024050000000     0.248090000000    -0.396559   
O24      O      0.293080000000     0.025940000000     0.249560000000    -0.392211   
O25      O      0.225070000000     0.048000000000     0.993360000000    -0.397214   
O26      O      0.218200000000     0.454380000000     0.999190000000    -0.39029    
O27      O      0.219730000000     0.504970000000     0.043830000000    -0.398251   
O28      O      0.223430000000     0.999180000000     0.450460000000    -0.399125   
O29      O      0.274710000000     0.993690000000     0.452910000000    -0.396226   
O30      O      0.271010000000     0.499220000000     0.046410000000    -0.398617   
O31      O      0.269470000000     0.450540000000     0.503400000000    -0.397246   
O32      O      0.276320000000     0.044160000000     0.497700000000    -0.392071   
O33      O      0.993270000000     0.227200000000     0.046890000000    -0.398518   
O34      O      0.996560000000     0.220740000000     0.453330000000    -0.398721   
O35      O      0.042390000000     0.221050000000     0.502860000000    -0.389388   
O36      O      0.448860000000     0.226980000000     0.999040000000    -0.396655   
O37      O      0.452350000000     0.278320000000     0.993800000000    -0.395775   
O38      O      0.045780000000     0.272330000000     0.497330000000    -0.399275   
O39      O      0.501640000000     0.272130000000     0.449830000000    -0.402079   
O40      O      0.498530000000     0.278570000000     0.043240000000    -0.397845   
O41      O      0.253600000000     0.200670000000     0.020510000000    -0.401562   
O42      O      0.244410000000     0.294030000000     0.027380000000    -0.39298    
O43      O      0.201460000000     0.241870000000     0.024800000000    -0.397478   
O44      O      0.294780000000     0.250930000000     0.022950000000    -0.399917   
O45      O      0.293190000000     0.256360000000     0.471660000000    -0.39209    
O46      O      0.199870000000     0.247420000000     0.473500000000    -0.4009     
O47      O      0.241130000000     0.297800000000     0.475970000000    -0.39766    
O48      O      0.250170000000     0.204450000000     0.469100000000    -0.394277   
O49      O      0.001460000000     0.046850000000     0.772200000000    -0.385484   
O50      O      0.991490000000     0.453440000000     0.774620000000    -0.396485   
O51      O      0.042890000000     0.494950000000     0.774560000000    -0.39381    
O52      O      0.449710000000     0.005070000000     0.772440000000    -0.395466   
O53      O      0.450670000000     0.995620000000     0.721690000000    -0.398591   
O54      O      0.044040000000     0.501870000000     0.723410000000    -0.395217   
O55      O      0.500560000000     0.452270000000     0.723790000000    -0.402765   
O56      O      0.494190000000     0.045510000000     0.721160000000    -0.396759   
O57      O      0.474100000000     0.202090000000     0.743970000000    -0.399151   
O58      O      0.472330000000     0.295560000000     0.753550000000    -0.392427   
O59      O      0.471960000000     0.252300000000     0.702150000000    -0.395416   
O60      O      0.474350000000     0.243630000000     0.795650000000    -0.392928   
O61      O      0.025500000000     0.249890000000     0.794600000000    -0.397213   
O62      O      0.023530000000     0.251570000000     0.700980000000    -0.392163   
O63      O      0.023560000000     0.296610000000     0.747860000000    -0.396918   
O64      O      0.025600000000     0.203180000000     0.747610000000    -0.399413   
O65      O      0.293950000000     0.474650000000     0.743610000000    -0.398066   
O66      O      0.200770000000     0.472540000000     0.751730000000    -0.394123   
O67      O      0.244600000000     0.474720000000     0.700940000000    -0.395342   
O68      O      0.251870000000     0.472500000000     0.794350000000    -0.395115   
O69      O      0.245380000000     0.023710000000     0.795770000000    -0.395151   
O70      O      0.245340000000     0.026390000000     0.702100000000    -0.394446   
O71      O      0.199300000000     0.024050000000     0.748090000000    -0.39656    
O72      O      0.293080000000     0.025940000000     0.749560000000    -0.3922     
O73      O      0.225070000000     0.048000000000     0.493360000000    -0.397427   
O74      O      0.218200000000     0.454380000000     0.499190000000    -0.391912   
O75      O      0.219730000000     0.504970000000     0.543840000000    -0.397094   
O76      O      0.223430000000     0.999180000000     0.950450000000    -0.399369   
O77      O      0.274710000000     0.993690000000     0.952910000000    -0.39499    
O78      O      0.271010000000     0.499220000000     0.546410000000    -0.398871   
O79      O      0.269470000000     0.450540000000     0.003400000000    -0.396735   
O80      O      0.276320000000     0.044160000000     0.997700000000    -0.390328   
O81      O      0.993270000000     0.227200000000     0.546890000000    -0.398719   
O82      O      0.996560000000     0.220740000000     0.953330000000    -0.39742    
O83      O      0.042390000000     0.221050000000     0.002860000000    -0.388896   
O84      O      0.448860000000     0.226980000000     0.499040000000    -0.398402   
O85      O      0.452350000000     0.278320000000     0.493800000000    -0.396023   
O86      O      0.045780000000     0.272330000000     0.997330000000    -0.397693   
O87      O      0.501640000000     0.272130000000     0.949830000000    -0.402273   
O88      O      0.498530000000     0.278570000000     0.543240000000    -0.396599   
O89      O      0.253600000000     0.200670000000     0.520510000000    -0.400069   
O90      O      0.244410000000     0.294030000000     0.527380000000    -0.393243   
O91      O      0.201460000000     0.241870000000     0.524800000000    -0.395936   
O92      O      0.294780000000     0.250930000000     0.522950000000    -0.398412   
O93      O      0.293190000000     0.256360000000     0.971660000000    -0.392464   
O94      O      0.199870000000     0.247420000000     0.973500000000    -0.401344   
O95      O      0.241130000000     0.297800000000     0.975970000000    -0.396238   
O96      O      0.250170000000     0.204450000000     0.969100000000    -0.394665   
O97      O      0.001460000000     0.546850000000     0.272200000000    -0.385524   
O98      O      0.991490000000     0.953440000000     0.274620000000    -0.396177   
O99      O      0.042890000000     0.994950000000     0.274560000000    -0.393574   
O100     O      0.449710000000     0.505070000000     0.272440000000    -0.395099   
O101     O      0.450670000000     0.495620000000     0.221690000000    -0.398481   
O102     O      0.044040000000     0.001870000000     0.223410000000    -0.396066   
O103     O      0.500560000000     0.952270000000     0.223790000000    -0.402877   
O104     O      0.494190000000     0.545510000000     0.221160000000    -0.396397   
O105     O      0.474100000000     0.702090000000     0.243970000000    -0.399099   
O106     O      0.472330000000     0.795560000000     0.253550000000    -0.392438   
O107     O      0.471960000000     0.752300000000     0.202150000000    -0.395406   
O108     O      0.474350000000     0.743630000000     0.295660000000    -0.392905   
O109     O      0.025500000000     0.749890000000     0.294600000000    -0.397266   
O110     O      0.023530000000     0.751570000000     0.200980000000    -0.392188   
O111     O      0.023560000000     0.796610000000     0.247860000000    -0.397042   
O112     O      0.025600000000     0.703190000000     0.247610000000    -0.399356   
O113     O      0.293950000000     0.974650000000     0.243610000000    -0.397666   
O114     O      0.200770000000     0.972540000000     0.251730000000    -0.394236   
O115     O      0.244600000000     0.974720000000     0.200940000000    -0.394945   
O116     O      0.251870000000     0.972500000000     0.294350000000    -0.395229   
O117     O      0.245380000000     0.523710000000     0.295770000000    -0.394727   
O118     O      0.245340000000     0.526390000000     0.202100000000    -0.394555   
O119     O      0.199300000000     0.524050000000     0.248090000000    -0.396139   
O120     O      0.293080000000     0.525940000000     0.249560000000    -0.392293   
O121     O      0.225070000000     0.548000000000     0.993360000000    -0.397267   
O122     O      0.218200000000     0.954380000000     0.999190000000    -0.389922   
O123     O      0.219730000000     0.004970000000     0.043830000000    -0.39809    
O124     O      0.223430000000     0.499180000000     0.450460000000    -0.399625   
O125     O      0.274710000000     0.493690000000     0.452910000000    -0.396302   
O126     O      0.271010000000     0.999220000000     0.046410000000    -0.398146   
O127     O      0.269470000000     0.950540000000     0.503400000000    -0.397299   
O128     O      0.276320000000     0.544160000000     0.497700000000    -0.39172    
O129     O      0.993270000000     0.727200000000     0.046890000000    -0.398512   
O130     O      0.996560000000     0.720740000000     0.453330000000    -0.398803   
O131     O      0.042390000000     0.721050000000     0.502860000000    -0.389376   
O132     O      0.448860000000     0.726970000000     0.999040000000    -0.396481   
O133     O      0.452350000000     0.778320000000     0.993800000000    -0.395701   
O134     O      0.045780000000     0.772330000000     0.497330000000    -0.399262   
O135     O      0.501640000000     0.772130000000     0.449830000000    -0.401963   
O136     O      0.498530000000     0.778570000000     0.043240000000    -0.397835   
O137     O      0.253600000000     0.700670000000     0.020510000000    -0.401599   
O138     O      0.244410000000     0.794030000000     0.027380000000    -0.392978   
O139     O      0.201460000000     0.741870000000     0.024800000000    -0.397484   
O140     O      0.294780000000     0.750930000000     0.022950000000    -0.399909   
O141     O      0.293190000000     0.756360000000     0.471660000000    -0.392082   
O142     O      0.199870000000     0.747420000000     0.473500000000    -0.400887   
O143     O      0.241130000000     0.797800000000     0.475970000000    -0.397643   
O144     O      0.250170000000     0.704440000000     0.469100000000    -0.394254   
O145     O      0.001460000000     0.546850000000     0.772200000000    -0.385494   
O146     O      0.991490000000     0.953440000000     0.774620000000    -0.396146   
O147     O      0.042890000000     0.994950000000     0.774560000000    -0.393544   
O148     O      0.449710000000     0.505070000000     0.772440000000    -0.39507    
O149     O      0.450670000000     0.495620000000     0.721690000000    -0.398449   
O150     O      0.044040000000     0.001870000000     0.723410000000    -0.396044   
O151     O      0.500560000000     0.952270000000     0.723790000000    -0.402847   
O152     O      0.494190000000     0.545510000000     0.721160000000    -0.39637    
O153     O      0.474100000000     0.702090000000     0.743970000000    -0.399103   
O154     O      0.472330000000     0.795560000000     0.753550000000    -0.39244    
O155     O      0.471960000000     0.752300000000     0.702150000000    -0.395414   
O156     O      0.474350000000     0.743630000000     0.795650000000    -0.392923   
O157     O      0.025500000000     0.749890000000     0.794600000000    -0.397225   
O158     O      0.023530000000     0.751570000000     0.700980000000    -0.392176   
O159     O      0.023560000000     0.796610000000     0.747860000000    -0.397036   
O160     O      0.025600000000     0.703190000000     0.747610000000    -0.399345   
O161     O      0.293950000000     0.974650000000     0.743610000000    -0.397653   
O162     O      0.200770000000     0.972540000000     0.751730000000    -0.394229   
O163     O      0.244600000000     0.974720000000     0.700940000000    -0.394922   
O164     O      0.251870000000     0.972500000000     0.794350000000    -0.395224   
O165     O      0.245380000000     0.523710000000     0.795770000000    -0.394713   
O166     O      0.245340000000     0.526390000000     0.702100000000    -0.394547   
O167     O      0.199300000000     0.524050000000     0.748090000000    -0.396134   
O168     O      0.293080000000     0.525940000000     0.749560000000    -0.392283   
O169     O      0.225070000000     0.548000000000     0.493360000000    -0.39748    
O170     O      0.218200000000     0.954380000000     0.499190000000    -0.391553   
O171     O      0.219730000000     0.004970000000     0.543840000000    -0.396943   
O172     O      0.223430000000     0.499180000000     0.950450000000    -0.399877   
O173     O      0.274710000000     0.493690000000     0.952910000000    -0.395069   
O174     O      0.271010000000     0.999220000000     0.546410000000    -0.398392   
O175     O      0.269470000000     0.950540000000     0.003400000000    -0.396787   
O176     O      0.276320000000     0.544160000000     0.997700000000    -0.389972   
O177     O      0.993270000000     0.727200000000     0.546890000000    -0.398713   
O178     O      0.996560000000     0.720740000000     0.953330000000    -0.397497   
O179     O      0.042390000000     0.721050000000     0.002860000000    -0.388882   
O180     O      0.448860000000     0.726970000000     0.499040000000    -0.398236   
O181     O      0.452350000000     0.778320000000     0.493800000000    -0.39595    
O182     O      0.045780000000     0.772330000000     0.997330000000    -0.397674   
O183     O      0.501640000000     0.772130000000     0.949830000000    -0.402158   
O184     O      0.498530000000     0.778570000000     0.543240000000    -0.396584   
O185     O      0.253600000000     0.700670000000     0.520510000000    -0.400098   
O186     O      0.244410000000     0.794030000000     0.527380000000    -0.393242   
O187     O      0.201460000000     0.741870000000     0.524800000000    -0.395935   
O188     O      0.294780000000     0.750930000000     0.522950000000    -0.398399   
O189     O      0.293190000000     0.756360000000     0.971660000000    -0.392457   
O190     O      0.199870000000     0.747420000000     0.973500000000    -0.401333   
O191     O      0.241130000000     0.797800000000     0.975970000000    -0.396216   
O192     O      0.250170000000     0.704440000000     0.969100000000    -0.394644   
O193     O      0.501450000000     0.046850000000     0.272200000000    -0.392926   
O194     O      0.491490000000     0.453440000000     0.274620000000    -0.397879   
O195     O      0.542890000000     0.494950000000     0.274560000000    -0.39726    
O196     O      0.949710000000     0.005070000000     0.272440000000    -0.394913   
O197     O      0.950670000000     0.995620000000     0.221690000000    -0.39797    
O198     O      0.544040000000     0.501870000000     0.223410000000    -0.39872    
O199     O      0.000560000000     0.452270000000     0.223790000000    -0.395265   
O200     O      0.994190000000     0.045510000000     0.221160000000    -0.395323   
O201     O      0.974100000000     0.202090000000     0.243970000000    -0.402878   
O202     O      0.972330000000     0.295560000000     0.253550000000    -0.391556   
O203     O      0.971960000000     0.252300000000     0.202150000000    -0.394465   
O204     O      0.974350000000     0.243630000000     0.295660000000    -0.39685    
O205     O      0.525500000000     0.249890000000     0.294600000000    -0.396328   
O206     O      0.523530000000     0.251570000000     0.200980000000    -0.396177   
O207     O      0.523560000000     0.296610000000     0.247860000000    -0.400761   
O208     O      0.525600000000     0.203180000000     0.247610000000    -0.398576   
O209     O      0.793950000000     0.474650000000     0.243610000000    -0.398058   
O210     O      0.700760000000     0.472540000000     0.251730000000    -0.394147   
O211     O      0.744600000000     0.474720000000     0.200940000000    -0.395371   
O212     O      0.751870000000     0.472500000000     0.294350000000    -0.395129   
O213     O      0.745390000000     0.023710000000     0.295770000000    -0.395226   
O214     O      0.745340000000     0.026390000000     0.202100000000    -0.394478   
O215     O      0.699300000000     0.024050000000     0.248090000000    -0.396652   
O216     O      0.793080000000     0.025940000000     0.249560000000    -0.392209   
O217     O      0.725070000000     0.048000000000     0.993360000000    -0.397279   
O218     O      0.718200000000     0.454380000000     0.999190000000    -0.390442   
O219     O      0.719730000000     0.504970000000     0.043830000000    -0.398332   
O220     O      0.723430000000     0.999180000000     0.450460000000    -0.399194   
O221     O      0.774710000000     0.993690000000     0.452910000000    -0.396273   
O222     O      0.771010000000     0.499220000000     0.046410000000    -0.398649   
O223     O      0.769470000000     0.450540000000     0.503400000000    -0.397178   
O224     O      0.776320000000     0.044160000000     0.497700000000    -0.392115   
O225     O      0.493270000000     0.227200000000     0.046890000000    -0.397968   
O226     O      0.496560000000     0.220740000000     0.453330000000    -0.394505   
O227     O      0.542390000000     0.221050000000     0.502860000000    -0.392628   
O228     O      0.948860000000     0.226980000000     0.999040000000    -0.396256   
O229     O      0.952350000000     0.278320000000     0.993800000000    -0.395292   
O230     O      0.545780000000     0.272330000000     0.497330000000    -0.402507   
O231     O      0.001640000000     0.272130000000     0.449830000000    -0.399471   
O232     O      0.998530000000     0.278570000000     0.043240000000    -0.398454   
O233     O      0.753600000000     0.200670000000     0.020510000000    -0.401558   
O234     O      0.744410000000     0.294030000000     0.027380000000    -0.392992   
O235     O      0.701460000000     0.241870000000     0.024800000000    -0.397487   
O236     O      0.794790000000     0.250930000000     0.022950000000    -0.399894   
O237     O      0.793190000000     0.256360000000     0.471660000000    -0.392135   
O238     O      0.699870000000     0.247420000000     0.473500000000    -0.400927   
O239     O      0.741130000000     0.297800000000     0.475970000000    -0.397668   
O240     O      0.750170000000     0.204450000000     0.469100000000    -0.3943     
O241     O      0.501450000000     0.046850000000     0.772200000000    -0.392893   
O242     O      0.491490000000     0.453440000000     0.774620000000    -0.397854   
O243     O      0.542890000000     0.494950000000     0.774560000000    -0.397231   
O244     O      0.949710000000     0.005070000000     0.772440000000    -0.394891   
O245     O      0.950670000000     0.995620000000     0.721690000000    -0.39794    
O246     O      0.544040000000     0.501870000000     0.723410000000    -0.398686   
O247     O      0.000560000000     0.452270000000     0.723790000000    -0.395234   
O248     O      0.994190000000     0.045510000000     0.721160000000    -0.395303   
O249     O      0.974100000000     0.202090000000     0.743970000000    -0.402882   
O250     O      0.972330000000     0.295560000000     0.753550000000    -0.391558   
O251     O      0.971960000000     0.252300000000     0.702150000000    -0.394472   
O252     O      0.974350000000     0.243630000000     0.795650000000    -0.396863   
O253     O      0.525500000000     0.249890000000     0.794600000000    -0.396288   
O254     O      0.523530000000     0.251570000000     0.700980000000    -0.396168   
O255     O      0.523560000000     0.296610000000     0.747860000000    -0.400754   
O256     O      0.525600000000     0.203180000000     0.747610000000    -0.398565   
O257     O      0.793950000000     0.474650000000     0.743610000000    -0.398051   
O258     O      0.700760000000     0.472540000000     0.751730000000    -0.394139   
O259     O      0.744600000000     0.474720000000     0.700940000000    -0.395354   
O260     O      0.751870000000     0.472500000000     0.794350000000    -0.395122   
O261     O      0.745390000000     0.023710000000     0.795770000000    -0.395218   
O262     O      0.745340000000     0.026390000000     0.702100000000    -0.394469   
O263     O      0.699300000000     0.024050000000     0.748090000000    -0.396653   
O264     O      0.793080000000     0.025940000000     0.749560000000    -0.392198   
O265     O      0.725070000000     0.048000000000     0.493360000000    -0.397492   
O266     O      0.718200000000     0.454380000000     0.499190000000    -0.392066   
O267     O      0.719730000000     0.504970000000     0.543840000000    -0.397174   
O268     O      0.723430000000     0.999180000000     0.950450000000    -0.399439   
O269     O      0.774710000000     0.993690000000     0.952910000000    -0.395037   
O270     O      0.771010000000     0.499220000000     0.546410000000    -0.398904   
O271     O      0.769470000000     0.450540000000     0.003400000000    -0.396665   
O272     O      0.776320000000     0.044160000000     0.997700000000    -0.390372   
O273     O      0.493270000000     0.227200000000     0.546890000000    -0.398168   
O274     O      0.496560000000     0.220740000000     0.953330000000    -0.393211   
O275     O      0.542390000000     0.221050000000     0.002860000000    -0.392125   
O276     O      0.948860000000     0.226980000000     0.499040000000    -0.397999   
O277     O      0.952350000000     0.278320000000     0.493800000000    -0.395539   
O278     O      0.545780000000     0.272330000000     0.997330000000    -0.40091    
O279     O      0.001640000000     0.272130000000     0.949830000000    -0.399674   
O280     O      0.998530000000     0.278570000000     0.543240000000    -0.397211   
O281     O      0.753600000000     0.200670000000     0.520510000000    -0.400064   
O282     O      0.744410000000     0.294030000000     0.527380000000    -0.393255   
O283     O      0.701460000000     0.241870000000     0.524800000000    -0.395943   
O284     O      0.794790000000     0.250930000000     0.522950000000    -0.398389   
O285     O      0.793190000000     0.256360000000     0.971660000000    -0.39251    
O286     O      0.699870000000     0.247420000000     0.973500000000    -0.401371   
O287     O      0.741130000000     0.297800000000     0.975970000000    -0.396246   
O288     O      0.750170000000     0.204450000000     0.969100000000    -0.394689   
O289     O      0.501450000000     0.546850000000     0.272200000000    -0.392958   
O290     O      0.491490000000     0.953440000000     0.274620000000    -0.39754    
O291     O      0.542890000000     0.994950000000     0.274560000000    -0.396985   
O292     O      0.949710000000     0.505070000000     0.272440000000    -0.394523   
O293     O      0.950670000000     0.495620000000     0.221690000000    -0.397829   
O294     O      0.544040000000     0.001870000000     0.223410000000    -0.399523   
O295     O      0.000560000000     0.952270000000     0.223790000000    -0.395366   
O296     O      0.994190000000     0.545510000000     0.221160000000    -0.394936   
O297     O      0.974100000000     0.702090000000     0.243970000000    -0.402833   
O298     O      0.972330000000     0.795560000000     0.253550000000    -0.391569   
O299     O      0.971960000000     0.752300000000     0.202150000000    -0.394463   
O300     O      0.974350000000     0.743630000000     0.295660000000    -0.396846   
O301     O      0.525500000000     0.749890000000     0.294600000000    -0.396339   
O302     O      0.523530000000     0.751570000000     0.200980000000    -0.396191   
O303     O      0.523560000000     0.796610000000     0.247860000000    -0.400875   
O304     O      0.525600000000     0.703190000000     0.247610000000    -0.398508   
O305     O      0.793950000000     0.974650000000     0.243610000000    -0.397652   
O306     O      0.700760000000     0.972540000000     0.251730000000    -0.394252   
O307     O      0.744600000000     0.974720000000     0.200940000000    -0.394958   
O308     O      0.751870000000     0.972500000000     0.294350000000    -0.395236   
O309     O      0.745390000000     0.523710000000     0.295770000000    -0.394794   
O310     O      0.745340000000     0.526390000000     0.202100000000    -0.394577   
O311     O      0.699300000000     0.524050000000     0.248090000000    -0.396232   
O312     O      0.793080000000     0.525940000000     0.249560000000    -0.392291   
O313     O      0.725070000000     0.548000000000     0.993360000000    -0.397332   
O314     O      0.718200000000     0.954380000000     0.999190000000    -0.390073   
O315     O      0.719730000000     0.004970000000     0.043830000000    -0.39817    
O316     O      0.723430000000     0.499180000000     0.450460000000    -0.399695   
O317     O      0.774710000000     0.493690000000     0.452910000000    -0.396349   
O318     O      0.771010000000     0.999220000000     0.046410000000    -0.398178   
O319     O      0.769470000000     0.950540000000     0.503400000000    -0.39723    
O320     O      0.776320000000     0.544160000000     0.497700000000    -0.391765   
O321     O      0.493270000000     0.727200000000     0.046890000000    -0.397961   
O322     O      0.496560000000     0.720740000000     0.453330000000    -0.394584   
O323     O      0.542390000000     0.721050000000     0.502860000000    -0.392618   
O324     O      0.948860000000     0.726970000000     0.999040000000    -0.396083   
O325     O      0.952350000000     0.778320000000     0.993800000000    -0.395218   
O326     O      0.545780000000     0.772330000000     0.497330000000    -0.402493   
O327     O      0.001640000000     0.772130000000     0.449830000000    -0.399357   
O328     O      0.998530000000     0.778570000000     0.043240000000    -0.398443   
O329     O      0.753600000000     0.700670000000     0.020510000000    -0.401594   
O330     O      0.744410000000     0.794030000000     0.027380000000    -0.392989   
O331     O      0.701460000000     0.741870000000     0.024800000000    -0.397492   
O332     O      0.794790000000     0.750930000000     0.022950000000    -0.399887   
O333     O      0.793190000000     0.756360000000     0.471660000000    -0.392127   
O334     O      0.699870000000     0.747420000000     0.473500000000    -0.400914   
O335     O      0.741130000000     0.797800000000     0.475970000000    -0.397652   
O336     O      0.750170000000     0.704440000000     0.469100000000    -0.394277   
O337     O      0.501450000000     0.546850000000     0.772200000000    -0.392925   
O338     O      0.491490000000     0.953440000000     0.774620000000    -0.39751    
O339     O      0.542890000000     0.994950000000     0.774560000000    -0.396953   
O340     O      0.949710000000     0.505070000000     0.772440000000    -0.394494   
O341     O      0.950670000000     0.495620000000     0.721690000000    -0.397798   
O342     O      0.544040000000     0.001870000000     0.723410000000    -0.399502   
O343     O      0.000560000000     0.952270000000     0.723790000000    -0.395336   
O344     O      0.994190000000     0.545510000000     0.721160000000    -0.39491    
O345     O      0.974100000000     0.702090000000     0.743970000000    -0.402836   
O346     O      0.972330000000     0.795560000000     0.753550000000    -0.391572   
O347     O      0.971960000000     0.752300000000     0.702150000000    -0.39447    
O348     O      0.974350000000     0.743630000000     0.795650000000    -0.396859   
O349     O      0.525500000000     0.749890000000     0.794600000000    -0.3963     
O350     O      0.523530000000     0.751570000000     0.700980000000    -0.396181   
O351     O      0.523560000000     0.796610000000     0.747860000000    -0.400869   
O352     O      0.525600000000     0.703190000000     0.747610000000    -0.398497   
O353     O      0.793950000000     0.974650000000     0.743610000000    -0.397638   
O354     O      0.700760000000     0.972540000000     0.751730000000    -0.394245   
O355     O      0.744600000000     0.974720000000     0.700940000000    -0.394934   
O356     O      0.751870000000     0.972500000000     0.794350000000    -0.39523    
O357     O      0.745390000000     0.523710000000     0.795770000000    -0.39478    
O358     O      0.745340000000     0.526390000000     0.702100000000    -0.394569   
O359     O      0.699300000000     0.524050000000     0.748090000000    -0.396227   
O360     O      0.793080000000     0.525940000000     0.749560000000    -0.392281   
O361     O      0.725070000000     0.548000000000     0.493360000000    -0.397546   
O362     O      0.718200000000     0.954380000000     0.499190000000    -0.391707   
O363     O      0.719730000000     0.004970000000     0.543840000000    -0.397022   
O364     O      0.723430000000     0.499180000000     0.950450000000    -0.399947   
O365     O      0.774710000000     0.493690000000     0.952910000000    -0.395116   
O366     O      0.771010000000     0.999220000000     0.546410000000    -0.398424   
O367     O      0.769470000000     0.950540000000     0.003400000000    -0.396717   
O368     O      0.776320000000     0.544160000000     0.997700000000    -0.390016   
O369     O      0.493270000000     0.727200000000     0.546890000000    -0.398162   
O370     O      0.496560000000     0.720740000000     0.953330000000    -0.393283   
O371     O      0.542390000000     0.721050000000     0.002860000000    -0.392113   
O372     O      0.948860000000     0.726970000000     0.499040000000    -0.397833   
O373     O      0.952350000000     0.778320000000     0.493800000000    -0.395466   
O374     O      0.545780000000     0.772330000000     0.997330000000    -0.40089    
O375     O      0.001640000000     0.772130000000     0.949830000000    -0.39956    
O376     O      0.998530000000     0.778570000000     0.543240000000    -0.397196   
O377     O      0.753600000000     0.700670000000     0.520510000000    -0.400093   
O378     O      0.744410000000     0.794030000000     0.527380000000    -0.393253   
O379     O      0.701460000000     0.741870000000     0.524800000000    -0.395942   
O380     O      0.794790000000     0.750930000000     0.522950000000    -0.398376   
O381     O      0.793190000000     0.756360000000     0.971660000000    -0.392503   
O382     O      0.699870000000     0.747420000000     0.973500000000    -0.40136    
O383     O      0.741130000000     0.797800000000     0.975970000000    -0.396224   
O384     O      0.750170000000     0.704440000000     0.969100000000    -0.394668   


