data_structure

_audit_creation_method RASPA-1.0
_audit_creation_date 2023-6-5
_audit_author_name 'Poobodin Mano'

_cell_length_a    35.5075
_cell_length_b    35.604
_cell_length_c    21.2595
_cell_angle_alpha 89.9811
_cell_angle_beta  90.019
_cell_angle_gamma 119.982
_cell_volume      23279.9

_symmetry_cell_setting          triclinic
_symmetry_space_group_name_Hall 'P 1'
_symmetry_space_group_name_H-M  'P 1'
_symmetry_Int_Tables_number     1

_symmetry_equiv_pos_as_xyz 'x,y,z'

loop_
_atom_site_label
_atom_site_type_symbol
_atom_site_fract_x
_atom_site_fract_y
_atom_site_fract_z
_atom_site_charge
C1       C      0.909590000000     0.695440000000     0.686280000000     0.405178   
C2       C      0.743570000000     0.619280000000     0.615620000000     0.404251   
C3       C      0.806020000000     0.655710000000     0.772840000000     0.403341   
C4       C      0.846930000000     0.657410000000     0.531110000000     0.407581   
C5       C      0.079860000000     0.782610000000     0.772120000000     0.407345   
C6       C      0.246360000000     0.878250000000     0.839670000000     0.40773    
C7       C      0.183400000000     0.848410000000     0.684140000000     0.404752   
C8       C      0.141950000000     0.813380000000     0.926390000000     0.404936   
C9       C      0.414740000000     0.962800000000     0.933800000000     0.404906   
C10      C      0.579820000000     0.041930000000     0.009040000000     0.405503   
C11      C      0.520250000000     0.006590000000     0.850160000000     0.403109   
C12      C      0.475270000000     0.996880000000     0.091730000000     0.402888   
C13      C      0.245920000000     0.362220000000     0.335240000000     0.403784   
C14      C      0.080660000000     0.285930000000     0.262000000000     0.406512   
C15      C      0.140150000000     0.319730000000     0.418960000000     0.404984   
C16      C      0.185120000000     0.328360000000     0.177660000000     0.40696    
C17      C      0.913400000000     0.208190000000     0.172780000000     0.409047   
C18      C      0.745590000000     0.126610000000     0.112020000000     0.406664   
C19      C      0.811700000000     0.149000000000     0.264000000000     0.409972   
C20      C      0.846430000000     0.187420000000     0.021840000000     0.408607   
C21      C      0.578700000000     0.538490000000     0.508950000000     0.405745   
C22      C      0.413330000000     0.445700000000     0.433560000000     0.406554   
C23      C      0.473760000000     0.473430000000     0.591360000000     0.407473   
C24      C      0.518760000000     0.511500000000     0.350280000000     0.403142   
C25      C      0.110350000000     0.361970000000     0.832930000000     0.404122   
C26      C      0.201280000000     0.286620000000     0.761810000000     0.406136   
C27      C      0.175890000000     0.323210000000     0.919610000000     0.403713   
C28      C      0.137600000000     0.325310000000     0.677450000000     0.40279    
C29      C      0.291050000000     0.208370000000     0.667280000000     0.403654   
C30      C      0.371730000000     0.122430000000     0.598510000000     0.403506   
C31      C      0.333720000000     0.146590000000     0.753940000000     0.404102   
C32      C      0.331810000000     0.185040000000     0.511960000000     0.40695    
C33      C      0.029880000000     0.450100000000     0.926300000000     0.403804   
C34      C      0.962120000000     0.545650000000     0.002460000000     0.408359   
C35      C      0.996630000000     0.519430000000     0.841240000000     0.408537   
C36      C      0.991300000000     0.479120000000     0.082060000000     0.412839   
C37      C      0.626250000000     0.872590000000     0.343980000000     0.401129   
C38      C      0.698710000000     0.778570000000     0.275330000000     0.401851   
C39      C      0.662550000000     0.807080000000     0.430530000000     0.407292   
C40      C      0.660720000000     0.844840000000     0.188640000000     0.404892   
C41      C      0.782900000000     0.692640000000     0.186920000000     0.403296   
C42      C      0.880670000000     0.624410000000     0.116100000000     0.404433   
C43      C      0.849820000000     0.655640000000     0.272800000000     0.40497    
C44      C      0.812230000000     0.660680000000     0.031160000000     0.404954   
C45      C      0.546790000000     0.961780000000     0.437460000000     0.403905   
C46      C      0.455340000000     0.037480000000     0.505180000000     0.40526    
C47      C      0.480730000000     0.998640000000     0.350470000000     0.40534    
C48      C      0.522010000000     0.000440000000     0.592260000000     0.407417   
C49      C      0.376180000000     0.246690000000     0.096300000000     0.403134   
C50      C      0.291540000000     0.081880000000     0.171800000000     0.407333   
C51      C      0.331780000000     0.142860000000     0.012360000000     0.406214   
C52      C      0.336690000000     0.186220000000     0.253420000000     0.403361   
C53      C      0.462890000000     0.415290000000     0.004020000000     0.405505   
C54      C      0.542670000000     0.581880000000     0.935070000000     0.406052   
C55      C      0.521910000000     0.517780000000     0.091600000000     0.405003   
C56      C      0.483380000000     0.477820000000     0.849330000000     0.403073   
C57      C      0.205730000000     0.915520000000     0.271060000000     0.404818   
C58      C      0.113120000000     0.749830000000     0.339550000000     0.406234   
C59      C      0.140080000000     0.813050000000     0.184660000000     0.408434   
C60      C      0.180420000000     0.853170000000     0.426170000000     0.406821   
C61      C      0.023640000000     0.580690000000     0.427920000000     0.408594   
C62      C      0.948550000000     0.414870000000     0.497970000000     0.403694   
C63      C      0.979320000000     0.478170000000     0.340010000000     0.404041   
C64      C      0.993040000000     0.519100000000     0.583160000000     0.405149   
C65      C      0.871830000000     0.250700000000     0.605670000000     0.405442   
C66      C      0.784920000000     0.085280000000     0.680090000000     0.403714   
C67      C      0.814020000000     0.146850000000     0.522290000000     0.406186   
C68      C      0.844450000000     0.190190000000     0.764040000000     0.405372   
C69      C      0.624180000000     0.750800000000     0.843870000000     0.403596   
C70      C      0.699770000000     0.917140000000     0.774610000000     0.405937   
C71      C      0.662970000000     0.852920000000     0.930420000000     0.408316   
C72      C      0.660040000000     0.812580000000     0.688650000000     0.405551   
C73      C      0.784720000000     0.021460000000     0.713760000000     0.0297993  
C74      C      0.719750000000     0.023870000000     0.716830000000     0.0171224  
C75      C      0.763120000000     0.979770000000     0.739000000000     0.0290393  
C76      C      0.697570000000     0.981790000000     0.742030000000     0.0684173  
C77      C      0.886440000000     0.350660000000     0.534570000000     0.0295842  
C78      C      0.955220000000     0.356220000000     0.539350000000     0.0160735  
C79      C      0.868020000000     0.310190000000     0.563510000000     0.0288309  
C80      C      0.937030000000     0.315460000000     0.568540000000     0.0674426  
C81      C      0.109850000000     0.683820000000     0.367250000000     0.0299388  
C82      C      0.046890000000     0.689640000000     0.376090000000     0.0175711  
C83      C      0.087180000000     0.641880000000     0.390680000000     0.0296612  
C84      C      0.023520000000     0.647100000000     0.399440000000     0.0687873  
C85      C      0.627340000000     0.689130000000     0.881410000000     0.0303347  
C86      C      0.559810000000     0.685910000000     0.871450000000     0.0161341  
C87      C      0.606290000000     0.646670000000     0.904640000000     0.029568   
C88      C      0.538380000000     0.643470000000     0.894590000000     0.0685596  
C89      C      0.269910000000     0.975940000000     0.229320000000     0.0298774  
C90      C      0.206750000000     0.980660000000     0.244510000000     0.0157835  
C91      C      0.290910000000     0.017770000000     0.203900000000     0.0301419  
C92      C      0.227370000000     0.022450000000     0.219310000000     0.0687239  
C93      C      0.376500000000     0.310470000000     0.061620000000     0.0299682  
C94      C      0.441530000000     0.308130000000     0.061330000000     0.0143536  
C95      C      0.398740000000     0.352620000000     0.037890000000     0.0290897  
C96      C      0.464100000000     0.350170000000     0.036460000000     0.0666668  
C97      C      0.697760000000     0.817770000000     0.593740000000     0.0298753  
C98      C      0.621600000000     0.786860000000     0.592670000000     0.0169494  
C99      C      0.698040000000     0.817170000000     0.528110000000     0.0308552  
C100     C      0.621290000000     0.784300000000     0.527030000000     0.0689203  
C101     C      0.698700000000     0.876430000000     0.093560000000     0.0296329  
C102     C      0.622330000000     0.833420000000     0.092830000000     0.0169679  
C103     C      0.698860000000     0.877360000000     0.027920000000     0.0309169  
C104     C      0.621950000000     0.835820000000     0.027180000000     0.0685733  
C105     C      0.762260000000     0.776640000000     0.247150000000     0.029111   
C106     C      0.694490000000     0.712610000000     0.239810000000     0.0166006  
C107     C      0.782650000000     0.754940000000     0.223830000000     0.0288648  
C108     C      0.714960000000     0.690100000000     0.216830000000     0.0671209  
C109     C      0.563700000000     0.875480000000     0.376130000000     0.027524   
C110     C      0.632170000000     0.938890000000     0.380390000000     0.0160657  
C111     C      0.544520000000     0.898020000000     0.401080000000     0.0275754  
C112     C      0.613060000000     0.962110000000     0.405160000000     0.0679502  
C113     C      0.958520000000     0.514110000000     0.680890000000     0.0295047  
C114     C      0.034330000000     0.542640000000     0.677420000000     0.0171038  
C115     C      0.959790000000     0.513430000000     0.746350000000     0.0304658  
C116     C      0.036230000000     0.543890000000     0.743220000000     0.0685385  
C117     C      0.014900000000     0.476320000000     0.246740000000     0.0291196  
C118     C      0.946800000000     0.472870000000     0.239350000000     0.0144798  
C119     C      0.018330000000     0.477920000000     0.181640000000     0.0348872  
C120     C      0.949730000000     0.474040000000     0.173340000000     0.0757376  
C121     C      0.915780000000     0.545780000000     0.081590000000     0.0284071  
C122     C      0.959760000000     0.609490000000     0.023140000000     0.0193999  
C123     C      0.894400000000     0.565850000000     0.108930000000     0.0326392  
C124     C      0.939410000000     0.630160000000     0.051390000000     0.0681438  
C125     C      0.295670000000     0.116190000000     0.849550000000     0.0295415  
C126     C      0.372060000000     0.159160000000     0.850020000000     0.0167993  
C127     C      0.295550000000     0.116710000000     0.915310000000     0.0308964  
C128     C      0.372450000000     0.158060000000     0.915790000000     0.0687834  
C129     C      0.297770000000     0.177520000000     0.348320000000     0.0289412  
C130     C      0.374110000000     0.210310000000     0.350470000000     0.0164565  
C131     C      0.296820000000     0.175870000000     0.414000000000     0.0303889  
C132     C      0.373700000000     0.211010000000     0.416290000000     0.0680585  
C133     C      0.435710000000     0.122210000000     0.565980000000     0.0296338  
C134     C      0.368260000000     0.057520000000     0.561830000000     0.0169673  
C135     C      0.455950000000     0.100680000000     0.540840000000     0.0289302  
C136     C      0.388330000000     0.035440000000     0.536770000000     0.0682492  
C137     C      0.092670000000     0.446990000000     0.896870000000     0.0297791  
C138     C      0.023940000000     0.384440000000     0.886490000000     0.0173713  
C139     C      0.112220000000     0.424900000000     0.871820000000     0.0291094  
C140     C      0.043470000000     0.361560000000     0.861780000000     0.0677857  
C141     C      0.290610000000     0.270520000000     0.709340000000     0.0302667  
C142     C      0.224650000000     0.206250000000     0.689840000000     0.0159744  
C143     C      0.267440000000     0.289670000000     0.733360000000     0.0306239  
C144     C      0.201200000000     0.225030000000     0.713420000000     0.0691369  
C145     C      0.496490000000     0.454670000000     0.751090000000     0.0296319  
C146     C      0.447900000000     0.481530000000     0.756470000000     0.0155885  
C147     C      0.492140000000     0.451870000000     0.685810000000     0.0309299  
C148     C      0.445320000000     0.481150000000     0.690570000000     0.0704313  
C149     C      0.511760000000     0.542450000000     0.254970000000     0.0294323  
C150     C      0.544570000000     0.499040000000     0.253790000000     0.0168457  
C151     C      0.511600000000     0.542780000000     0.189290000000     0.0308522  
C152     C      0.546650000000     0.501090000000     0.187920000000     0.0682265  
C153     C      0.875360000000     0.183740000000     0.859300000000     0.029555   
C154     C      0.827280000000     0.211360000000     0.861130000000     0.0167172  
C155     C      0.874500000000     0.181750000000     0.924650000000     0.0326578  
C156     C      0.828130000000     0.211720000000     0.927050000000     0.069326   
C157     C      0.775080000000     0.137300000000     0.426310000000     0.0289948  
C158     C      0.846490000000     0.148590000000     0.424560000000     0.0165694  
C159     C      0.774970000000     0.138260000000     0.360460000000     0.0332966  
C160     C      0.847050000000     0.151050000000     0.359230000000     0.0682621  
C161     C      0.152970000000     0.360840000000     0.578630000000     0.0295739  
C162     C      0.108140000000     0.284910000000     0.583150000000     0.0150588  
C163     C      0.152520000000     0.358950000000     0.513220000000     0.030148   
C164     C      0.109320000000     0.282530000000     0.517260000000     0.0687485  
C165     C      0.163800000000     0.287000000000     0.017860000000     0.0298497  
C166     C      0.209750000000     0.362800000000     0.012750000000     0.0160732  
C167     C      0.168100000000     0.288650000000     0.083190000000     0.0307273  
C168     C      0.212140000000     0.364980000000     0.078600000000     0.0706811  
C169     C      0.026670000000     0.237270000000     0.192230000000     0.0313531  
C170     C      0.009400000000     0.274540000000     0.268580000000     0.0188031  
C171     C      0.984500000000     0.218440000000     0.168460000000     0.0323938  
C172     C      0.965860000000     0.251670000000     0.249540000000     0.0692276  
C173     C      0.310210000000     0.425880000000     0.366970000000     0.029733   
C174     C      0.306690000000     0.358320000000     0.375450000000     0.0172277  
C175     C      0.351610000000     0.446130000000     0.393240000000     0.0293177  
C176     C      0.348680000000     0.378480000000     0.401630000000     0.0683123  
C177     C      0.540940000000     0.043170000000     0.751390000000     0.0293867  
C178     C      0.518780000000     0.968850000000     0.757120000000     0.0152888  
C179     C      0.543070000000     0.041480000000     0.685860000000     0.0312635  
C180     C      0.518620000000     0.966420000000     0.691370000000     0.070876   
C181     C      0.483720000000     0.033910000000     0.188430000000     0.0291524  
C182     C      0.453930000000     0.958120000000     0.188160000000     0.0164737  
C183     C      0.486570000000     0.034100000000     0.254010000000     0.0306284  
C184     C      0.454750000000     0.957710000000     0.254030000000     0.0686235  
C185     C      0.642450000000     0.041100000000     0.047800000000     0.030483   
C186     C      0.639800000000     0.105810000000     0.049630000000     0.0156477  
C187     C      0.683780000000     0.062790000000     0.074940000000     0.0289317  
C188     C      0.680610000000     0.127600000000     0.078330000000     0.0666324  
C189     C      0.203830000000     0.833020000000     0.584950000000     0.0299015  
C190     C      0.177590000000     0.882040000000     0.590950000000     0.0159299  
C191     C      0.204450000000     0.835890000000     0.519420000000     0.0308618  
C192     C      0.176070000000     0.883390000000     0.525230000000     0.0700613  
C193     C      0.148830000000     0.783980000000     0.023230000000     0.0300522  
C194     C      0.115750000000     0.827140000000     0.021220000000     0.0175127  
C195     C      0.149130000000     0.785120000000     0.088830000000     0.0313916  
C196     C      0.114090000000     0.826850000000     0.087020000000     0.068844   
C197     C      0.351080000000     0.899030000000     0.900800000000     0.0297862  
C198     C      0.352970000000     0.965990000000     0.896760000000     0.0172047  
C199     C      0.309360000000     0.878570000000     0.875740000000     0.0294331  
C200     C      0.310730000000     0.945640000000     0.871670000000     0.0685484  
C201     C      0.785090000000     0.619630000000     0.871350000000     0.0293845  
C202     C      0.814750000000     0.695360000000     0.867180000000     0.0153447  
C203     C      0.785890000000     0.621260000000     0.936830000000     0.0293757  
C204     C      0.817560000000     0.697510000000     0.933100000000     0.0686404  
C205     C      0.876840000000     0.693820000000     0.369010000000     0.0299641  
C206     C      0.836690000000     0.617490000000     0.368980000000     0.0176009  
C207     C      0.874410000000     0.693820000000     0.434570000000     0.0302815  
C208     C      0.835910000000     0.617050000000     0.434760000000     0.068365   
C209     C      0.679890000000     0.556360000000     0.580260000000     0.0298069  
C210     C      0.683750000000     0.624170000000     0.573870000000     0.0172149  
C211     C      0.639280000000     0.536900000000     0.551540000000     0.0292337  
C212     C      0.642600000000     0.604800000000     0.545190000000     0.0682853  
C213     C      0.974450000000     0.760000000000     0.712370000000     0.0292301  
C214     C      0.971680000000     0.692900000000     0.723850000000     0.0160323  
C215     C      0.016690000000     0.781260000000     0.735190000000     0.0296543  
C216     C      0.014570000000     0.714130000000     0.746680000000     0.0681132  
Cu1      Cu     0.829660000000     0.692930000000     0.645570000000     0.848793   
Cu2      Cu     0.823250000000     0.621090000000     0.658130000000     0.851274   
Cu3      Cu     0.158780000000     0.862830000000     0.809450000000     0.856701   
Cu4      Cu     0.167500000000     0.798570000000     0.801400000000     0.845289   
Cu5      Cu     0.499400000000     0.037530000000     0.966570000000     0.848858   
Cu6      Cu     0.495510000000     0.966550000000     0.975080000000     0.849792   
Cu7      Cu     0.165840000000     0.359890000000     0.294570000000     0.851658   
Cu8      Cu     0.160330000000     0.288140000000     0.302320000000     0.845259   
Cu9      Cu     0.827990000000     0.201290000000     0.151400000000     0.859763   
Cu10     Cu     0.831180000000     0.134390000000     0.134470000000     0.848248   
Cu11     Cu     0.492040000000     0.524560000000     0.475330000000     0.846403   
Cu12     Cu     0.500210000000     0.460060000000     0.466230000000     0.847707   
Cu13     Cu     0.123590000000     0.288420000000     0.804520000000     0.847025   
Cu14     Cu     0.188990000000     0.360350000000     0.792900000000     0.847228   
Cu15     Cu     0.296320000000     0.132560000000     0.626760000000     0.848388   
Cu16     Cu     0.367430000000     0.199080000000     0.639570000000     0.847414   
Cu17     Cu     0.958250000000     0.466810000000     0.954920000000     0.854828   
Cu18     Cu     0.032170000000     0.529690000000     0.968380000000     0.856592   
Cu19     Cu     0.625890000000     0.793310000000     0.303710000000     0.849334   
Cu20     Cu     0.698770000000     0.857760000000     0.314850000000     0.847107   
Cu21     Cu     0.799910000000     0.621250000000     0.156480000000     0.840324   
Cu22     Cu     0.863120000000     0.694870000000     0.147320000000     0.853291   
Cu23     Cu     0.468900000000     0.963820000000     0.478640000000     0.853399   
Cu24     Cu     0.533590000000     0.035880000000     0.464380000000     0.838633   
Cu25     Cu     0.368890000000     0.165050000000     0.139280000000     0.850819   
Cu26     Cu     0.298880000000     0.163060000000     0.126820000000     0.849404   
Cu27     Cu     0.537130000000     0.498120000000     0.963150000000     0.845361   
Cu28     Cu     0.468950000000     0.499340000000     0.977190000000     0.850015   
Cu29     Cu     0.192170000000     0.828640000000     0.299060000000     0.846892   
Cu30     Cu     0.127510000000     0.836660000000     0.312180000000     0.858336   
Cu31     Cu     0.021570000000     0.500190000000     0.463990000000     0.86223    
Cu32     Cu     0.949750000000     0.494990000000     0.460100000000     0.839539   
Cu33     Cu     0.862310000000     0.166330000000     0.640910000000     0.858475   
Cu34     Cu     0.794720000000     0.169710000000     0.645820000000     0.842835   
Cu35     Cu     0.698280000000     0.837220000000     0.814760000000     0.839885   
Cu36     Cu     0.626090000000     0.830500000000     0.803570000000     0.858673   
H1       H      0.782250000000     0.964070000000     0.746130000000     0.0386641  
H2       H      0.819110000000     0.035680000000     0.703700000000     0.0380182  
H3       H      0.701680000000     0.040670000000     0.709310000000     0.0459986  
H4       H      0.616690000000     0.940300000000     0.710770000000     0.0420902  
H5       H      0.833180000000     0.293640000000     0.571240000000     0.0391818  
H6       H      0.865110000000     0.363200000000     0.522520000000     0.0379572  
H7       H      0.990050000000     0.373880000000     0.531160000000     0.0447003  
H8       H      0.989120000000     0.312700000000     0.650130000000     0.0393369  
H9       H      0.105260000000     0.624860000000     0.394810000000     0.0391116  
H10      H      0.143840000000     0.696730000000     0.355460000000     0.038067   
H11      H      0.030120000000     0.707950000000     0.371310000000     0.0458124  
H12      H      0.966660000000     0.638610000000     0.481810000000     0.0420749  
H13      H      0.626470000000     0.632920000000     0.917320000000     0.0399269  
H14      H      0.662460000000     0.705920000000     0.877100000000     0.0391619  
H15      H      0.540160000000     0.700180000000     0.858210000000     0.0442156  
H16      H      0.465370000000     0.596850000000     0.838060000000     0.0376069  
H17      H      0.324200000000     0.030760000000     0.188210000000     0.0402231  
H18      H      0.287860000000     0.958730000000     0.232240000000     0.0398547  
H19      H      0.173550000000     0.967330000000     0.260950000000     0.0444959  
H20      H      0.205980000000     0.071810000000     0.279150000000     0.0370418  
H21      H      0.379820000000     0.368430000000     0.029780000000     0.0411879  
H22      H      0.341940000000     0.296120000000     0.070490000000     0.0404716  
H23      H      0.459490000000     0.291300000000     0.069670000000     0.0421287  
H24      H      0.525330000000     0.360220000000     0.961590000000     0.0387029  
H25      H      0.729180000000     0.829990000000     0.504570000000     0.0363039  
H26      H      0.728680000000     0.831620000000     0.618120000000     0.0373623  
H27      H      0.590830000000     0.775130000000     0.616970000000     0.0428239  
H28      H      0.562360000000     0.797640000000     0.479530000000     0.0400163  
H29      H      0.730050000000     0.894800000000     0.004300000000     0.0364786  
H30      H      0.729720000000     0.892560000000     0.117810000000     0.0375613  
H31      H      0.591500000000     0.815330000000     0.117290000000     0.0428834  
H32      H      0.553740000000     0.833830000000     0.982140000000     0.0380622  
H33      H      0.817730000000     0.773910000000     0.219290000000     0.0389589  
H34      H      0.782680000000     0.810750000000     0.258220000000     0.0384064  
H35      H      0.659400000000     0.695100000000     0.245090000000     0.0445831  
H36      H      0.667750000000     0.632100000000     0.135400000000     0.0422919  
H37      H      0.509550000000     0.879760000000     0.407480000000     0.0369899  
H38      H      0.542680000000     0.841340000000     0.365810000000     0.0363702  
H39      H      0.667130000000     0.955910000000     0.373450000000     0.0455044  
H40      H      0.654180000000     0.042840000000     0.374480000000     0.0398524  
H41      H      0.929290000000     0.501230000000     0.771500000000     0.0364011  
H42      H      0.927110000000     0.501790000000     0.658390000000     0.0373194  
H43      H      0.064340000000     0.553980000000     0.651240000000     0.0430358  
H44      H      0.107130000000     0.606440000000     0.788130000000     0.0385372  
H45      H      0.047190000000     0.480100000000     0.160500000000     0.0335717  
H46      H      0.041680000000     0.477820000000     0.273320000000     0.0394448  
H47      H      0.918790000000     0.472250000000     0.260840000000     0.044872   
H48      H      0.878570000000     0.438760000000     0.102950000000     0.0480759  
H49      H      0.870220000000     0.548150000000     0.144850000000     0.0366447  
H50      H      0.912140000000     0.515380000000     0.102330000000     0.0461576  
H51      H      0.984980000000     0.626920000000     0.988300000000     0.0396942  
H52      H      0.932330000000     0.681590000000     0.973500000000     0.0412015  
H53      H      0.264400000000     0.099940000000     0.939200000000     0.0361606  
H54      H      0.264670000000     0.099730000000     0.825310000000     0.0375194  
H55      H      0.402880000000     0.176900000000     0.825430000000     0.0427752  
H56      H      0.432870000000     0.230230000000     0.960930000000     0.0395298  
H57      H      0.265390000000     0.161380000000     0.437080000000     0.0353902  
H58      H      0.267040000000     0.163460000000     0.323380000000     0.0355932  
H59      H      0.405170000000     0.223480000000     0.326500000000     0.0421465  
H60      H      0.441460000000     0.275220000000     0.465420000000     0.038077   
H61      H      0.490870000000     0.119650000000     0.534240000000     0.038224   
H62      H      0.455820000000     0.156470000000     0.576340000000     0.0380286  
H63      H      0.333300000000     0.039560000000     0.568710000000     0.0449884  
H64      H      0.339530000000     0.978620000000     0.454950000000     0.04118    
H65      H      0.147380000000     0.442930000000     0.867880000000     0.0384743  
H66      H      0.113750000000     0.480690000000     0.909680000000     0.0385436  
H67      H      0.988800000000     0.367730000000     0.890910000000     0.0454851  
H68      H      0.996210000000     0.307700000000     0.775850000000     0.0388678  
H69      H      0.286070000000     0.322730000000     0.750370000000     0.040081   
H70      H      0.325810000000     0.289580000000     0.708680000000     0.0402055  
H71      H      0.206370000000     0.173340000000     0.671980000000     0.0444293  
H72      H      0.132290000000     0.202840000000     0.647820000000     0.0383346  
H73      H      0.510790000000     0.440350000000     0.660090000000     0.0363585  
H74      H      0.517430000000     0.444340000000     0.772940000000     0.037093   
H75      H      0.429570000000     0.493000000000     0.783130000000     0.0419584  
H76      H      0.430220000000     0.539280000000     0.645220000000     0.0421189  
H77      H      0.497620000000     0.560050000000     0.165830000000     0.0363221  
H78      H      0.497300000000     0.558900000000     0.279360000000     0.0374623  
H79      H      0.557180000000     0.480810000000     0.278060000000     0.0427806  
H80      H      0.534950000000     0.429500000000     0.141670000000     0.0419442  
H81      H      0.893220000000     0.169250000000     0.947840000000     0.035155   
H82      H      0.894250000000     0.172030000000     0.834730000000     0.0381866  
H83      H      0.807520000000     0.222320000000     0.837130000000     0.0426666  
H84      H      0.753740000000     0.192600000000     0.972650000000     0.0421021  
H85      H      0.746320000000     0.134400000000     0.336300000000     0.0290561  
H86      H      0.746480000000     0.132910000000     0.451100000000     0.0377194  
H87      H      0.876280000000     0.154980000000     0.447990000000     0.0421663  
H88      H      0.925250000000     0.160640000000     0.349580000000     0.0346566  
H89      H      0.170960000000     0.389350000000     0.488090000000     0.0377462  
H90      H      0.171070000000     0.392420000000     0.600770000000     0.0374617  
H91      H      0.089990000000     0.255020000000     0.609570000000     0.040979   
H92      H      0.036430000000     0.224920000000     0.470290000000     0.036812   
H93      H      0.150500000000     0.258390000000     0.108920000000     0.0359796  
H94      H      0.143960000000     0.255610000000     0.995910000000     0.0374543  
H95      H      0.227090000000     0.392750000000     0.986230000000     0.0428939  
H96      H      0.223620000000     0.436840000000     0.124230000000     0.0425433  
H97      H      0.976060000000     0.197210000000     0.127940000000     0.0355448  
H98      H      0.049670000000     0.229890000000     0.169840000000     0.0335202  
H99      H      0.018020000000     0.294170000000     0.310930000000     0.0367005  
H100     H      0.943730000000     0.260400000000     0.363300000000     0.0347556  
H101     H      0.367620000000     0.481070000000     0.398400000000     0.0385862  
H102     H      0.296560000000     0.446140000000     0.354360000000     0.0379968  
H103     H      0.289470000000     0.323350000000     0.369770000000     0.0453426  
H104     H      0.390130000000     0.338140000000     0.376660000000     0.0413545  
H105     H      0.552300000000     0.070980000000     0.659630000000     0.0359716  
H106     H      0.549460000000     0.073980000000     0.773070000000     0.0377506  
H107     H      0.509660000000     0.939530000000     0.783780000000     0.043392   
H108     H      0.463890000000     0.891360000000     0.647040000000     0.0431781  
H109     H      0.500150000000     0.065080000000     0.277990000000     0.0359114  
H110     H      0.496050000000     0.064760000000     0.164520000000     0.0370994  
H111     H      0.441590000000     0.927560000000     0.163300000000     0.0427955  
H112     H      0.472310000000     0.900260000000     0.295230000000     0.03901    
H113     H      0.699650000000     0.043970000000     0.083400000000     0.0406631  
H114     H      0.628460000000     0.006920000000     0.037080000000     0.0395274  
H115     H      0.623090000000     0.123850000000     0.041040000000     0.0436131  
H116     H      0.685560000000     0.184100000000     0.158340000000     0.038927   
H117     H      0.214890000000     0.816570000000     0.493180000000     0.0367123  
H118     H      0.214540000000     0.812350000000     0.606530000000     0.0377134  
H119     H      0.167340000000     0.901300000000     0.617750000000     0.043693   
H120     H      0.198620000000     0.959360000000     0.482890000000     0.0375536  
H121     H      0.163090000000     0.768270000000     0.113470000000     0.0372226  
H122     H      0.163200000000     0.767010000000     0.000080000000     0.0373375  
H123     H      0.102680000000     0.844480000000     0.995610000000     0.0429352  
H124     H      0.048390000000     0.829680000000     0.132120000000     0.0391829  
H125     H      0.293940000000     0.843780000000     0.869140000000     0.0386294  
H126     H      0.365520000000     0.879140000000     0.911210000000     0.0378438  
H127     H      0.369640000000     0.000830000000     0.903860000000     0.0460476  
H128     H      0.268310000000     0.984030000000     0.902240000000     0.0417989  
H129     H      0.774370000000     0.590920000000     0.961920000000     0.0377104  
H130     H      0.772430000000     0.588200000000     0.849040000000     0.037573   
H131     H      0.826060000000     0.725250000000     0.840950000000     0.0430055  
H132     H      0.799680000000     0.753460000000     0.979320000000     0.0384528  
H133     H      0.889550000000     0.724940000000     0.458370000000     0.0366502  
H134     H      0.892870000000     0.724830000000     0.344940000000     0.0371243  
H135     H      0.820960000000     0.586730000000     0.344130000000     0.0427732  
H136     H      0.836060000000     0.551040000000     0.483500000000     0.0375681  
H137     H      0.623380000000     0.502100000000     0.544680000000     0.0383914  
H138     H      0.693170000000     0.535770000000     0.592790000000     0.0381811  
H139     H      0.700870000000     0.658990000000     0.581240000000     0.0453803  
H140     H      0.638010000000     0.654560000000     0.461510000000     0.0422655  
H141     H      0.032640000000     0.816340000000     0.737880000000     0.0388537  
H142     H      0.960240000000     0.779750000000     0.699690000000     0.0385223  
H143     H      0.954400000000     0.657790000000     0.720610000000     0.044193   
H144     H      0.025270000000     0.669670000000     0.833000000000     0.0401173  
N1       N      0.763120000000     0.043580000000     0.702760000000    -0.173035   
N2       N      0.719470000000     0.959290000000     0.752700000000    -0.179347   
N3       N      0.930040000000     0.373820000000     0.522780000000    -0.173295   
N4       N      0.892770000000     0.291960000000     0.580320000000    -0.179678   
N5       N      0.089880000000     0.707830000000     0.360280000000    -0.173948   
N6       N      0.043990000000     0.622940000000     0.406720000000    -0.18022    
N7       N      0.604050000000     0.708750000000     0.865120000000    -0.173043   
N8       N      0.561910000000     0.623710000000     0.912150000000    -0.179703   
N9       N      0.227680000000     0.957290000000     0.248900000000    -0.173552   
N10      N      0.269680000000     0.040930000000     0.197570000000    -0.18041    
N11      N      0.397960000000     0.288370000000     0.073730000000    -0.173754   
N12      N      0.442560000000     0.372990000000     0.025320000000    -0.179932   
N13      N      0.659790000000     0.804870000000     0.625540000000    -0.173908   
N14      N      0.660140000000     0.801490000000     0.494550000000    -0.18118    
N15      N      0.660610000000     0.852400000000     0.125520000000    -0.173823   
N16      N      0.660800000000     0.856270000000     0.994490000000    -0.181172   
N17      N      0.718190000000     0.755770000000     0.254730000000    -0.172804   
N18      N      0.759630000000     0.711660000000     0.208610000000    -0.178828   
N19      N      0.607510000000     0.895740000000     0.366000000000    -0.17295    
N20      N      0.568620000000     0.941410000000     0.415330000000    -0.179453   
N21      N      0.995410000000     0.526230000000     0.646680000000    -0.174045   
N22      N      0.998200000000     0.526890000000     0.777700000000    -0.181555   
N23      N      0.979610000000     0.474550000000     0.275730000000    -0.171889   
N24      N      0.985670000000     0.475810000000     0.145350000000    -0.184838   
N25      N      0.945640000000     0.566920000000     0.035110000000    -0.175156   
N26      N      0.905110000000     0.607420000000     0.092530000000    -0.179479   
N27      N      0.333770000000     0.139570000000     0.817300000000    -0.173272   
N28      N      0.333660000000     0.138270000000     0.948530000000    -0.180894   
N29      N      0.336240000000     0.192480000000     0.316890000000    -0.173776   
N30      N      0.334500000000     0.191790000000     0.448130000000    -0.180768   
N31      N      0.391880000000     0.100710000000     0.576340000000    -0.173115   
N32      N      0.432820000000     0.057210000000     0.526770000000    -0.179546   
N33      N      0.048560000000     0.426980000000     0.904010000000    -0.172925   
N34      N      0.088210000000     0.382080000000     0.854720000000    -0.179298   
N35      N      0.269130000000     0.228610000000     0.688370000000    -0.172847   
N36      N      0.222840000000     0.266880000000     0.736890000000    -0.180014   
N37      N      0.475360000000     0.470660000000     0.786130000000    -0.173127   
N38      N      0.469000000000     0.467730000000     0.655280000000    -0.181128   
N39      N      0.525990000000     0.518540000000     0.286890000000    -0.17317    
N40      N      0.528120000000     0.521480000000     0.155560000000    -0.180588   
N41      N      0.849830000000     0.196200000000     0.827700000000    -0.173873   
N42      N      0.850460000000     0.194970000000     0.958500000000    -0.18191    
N43      N      0.811040000000     0.142740000000     0.458130000000    -0.173276   
N44      N      0.810550000000     0.144190000000     0.327460000000    -0.182614   
N45      N      0.131940000000     0.323750000000     0.613540000000    -0.17356    
N46      N      0.133080000000     0.319840000000     0.482480000000    -0.180718   
N47      N      0.183680000000     0.324200000000     0.982920000000    -0.173078   
N48      N      0.189840000000     0.327690000000     0.113750000000    -0.181368   
N49      N      0.039200000000     0.266630000000     0.240180000000    -0.175428   
N50      N      0.954860000000     0.227280000000     0.195540000000    -0.181541   
N51      N      0.287590000000     0.382000000000     0.358360000000    -0.173205   
N52      N      0.371470000000     0.422990000000     0.410280000000    -0.179495   
N53      N      0.527410000000     0.006510000000     0.786730000000    -0.17246    
N54      N      0.529090000000     0.002670000000     0.655850000000    -0.181612   
N55      N      0.469680000000     0.996210000000     0.155620000000    -0.17315    
N56      N      0.472930000000     0.996330000000     0.286910000000    -0.180753   
N57      N      0.620770000000     0.062800000000     0.034500000000    -0.174      
N58      N      0.703480000000     0.106150000000     0.089680000000    -0.180442   
N59      N      0.189050000000     0.855000000000     0.620470000000    -0.173027   
N60      N      0.187910000000     0.858660000000     0.489630000000    -0.181679   
N61      N      0.134580000000     0.807220000000     0.989770000000    -0.174093   
N62      N      0.133110000000     0.807570000000     0.120930000000    -0.180659   
N63      N      0.372970000000     0.942700000000     0.911210000000    -0.173549   
N64      N      0.288530000000     0.901280000000     0.861570000000    -0.179875   
N65      N      0.800950000000     0.656820000000     0.836620000000    -0.173329   
N66      N      0.804660000000     0.660250000000     0.967730000000    -0.181183   
N67      N      0.855640000000     0.655710000000     0.336450000000    -0.173789   
N68      N      0.853030000000     0.655690000000     0.467580000000    -0.180894   
N69      N      0.702320000000     0.600000000000     0.591050000000    -0.173265   
N70      N      0.620000000000     0.560560000000     0.534240000000    -0.1796     
N71      N      0.951830000000     0.715870000000     0.706860000000    -0.17394    
N72      N      0.037360000000     0.758910000000     0.751990000000    -0.180355   
O1       O      0.892350000000     0.718320000000     0.670810000000    -0.4006     
O2       O      0.765890000000     0.660730000000     0.620810000000    -0.395291   
O3       O      0.814060000000     0.688720000000     0.738660000000    -0.3928     
O4       O      0.845800000000     0.690210000000     0.554310000000    -0.393258   
O5       O      0.840280000000     0.625610000000     0.566590000000    -0.397581   
O6       O      0.806100000000     0.622790000000     0.748410000000    -0.397352   
O7       O      0.760500000000     0.595910000000     0.630450000000    -0.395795   
O8       O      0.887130000000     0.653800000000     0.684010000000    -0.39388    
O9       O      0.096350000000     0.823320000000     0.783320000000    -0.399375   
O10      O      0.222630000000     0.895950000000     0.835150000000    -0.393393   
O11      O      0.175330000000     0.873550000000     0.717560000000    -0.398319   
O12      O      0.141780000000     0.845730000000     0.900090000000    -0.398642   
O13      O      0.151710000000     0.788760000000     0.894480000000    -0.394007   
O14      O      0.183170000000     0.815440000000     0.709360000000    -0.391953   
O15      O      0.230090000000     0.837900000000     0.826280000000    -0.399403   
O16      O      0.103560000000     0.764970000000     0.777510000000    -0.393333   
O17      O      0.436020000000     0.004190000000     0.940220000000    -0.395639   
O18      O      0.561720000000     0.064100000000     0.994050000000    -0.401018   
O19      O      0.517300000000     0.037970000000     0.875070000000    -0.391184   
O20      O      0.482450000000     0.030360000000     0.059390000000    -0.392078   
O21      O      0.476980000000     0.965300000000     0.065460000000    -0.396557   
O22      O      0.513570000000     0.973810000000     0.883600000000    -0.396944   
O23      O      0.559000000000     0.000430000000     0.002940000000    -0.392961   
O24      O      0.432840000000     0.940200000000     0.946700000000    -0.396822   
O25      O      0.228930000000     0.385390000000     0.319780000000    -0.397237   
O26      O      0.101530000000     0.327010000000     0.271780000000    -0.393474   
O27      O      0.149970000000     0.353850000000     0.386650000000    -0.39853    
O28      O      0.182000000000     0.359470000000     0.202870000000    -0.394746   
O29      O      0.178830000000     0.295530000000     0.210770000000    -0.394451   
O30      O      0.140870000000     0.287410000000     0.393180000000    -0.388868   
O31      O      0.098580000000     0.262830000000     0.271110000000    -0.397626   
O32      O      0.223500000000     0.320660000000     0.331210000000    -0.392841   
O33      O      0.891730000000     0.228230000000     0.176590000000    -0.39094    
O34      O      0.765100000000     0.167040000000     0.125440000000    -0.39866    
O35      O      0.810930000000     0.181900000000     0.241370000000    -0.396415   
O36      O      0.843570000000     0.214180000000     0.059140000000    -0.394196   
O37      O      0.843540000000     0.152270000000     0.042980000000    -0.395617   
O38      O      0.820040000000     0.124650000000     0.228900000000    -0.391741   
O39      O      0.766270000000     0.105590000000     0.116230000000    -0.39567    
O40      O      0.895530000000     0.169190000000     0.152380000000    -0.39728    
O41      O      0.555590000000     0.556800000000     0.502930000000    -0.390478   
O42      O      0.429770000000     0.486060000000     0.447240000000    -0.397147   
O43      O      0.474250000000     0.506420000000     0.566100000000    -0.393259   
O44      O      0.509620000000     0.536120000000     0.383240000000    -0.394395   
O45      O      0.518210000000     0.478420000000     0.375520000000    -0.394156   
O46      O      0.482830000000     0.448770000000     0.558330000000    -0.395199   
O47      O      0.436660000000     0.427640000000     0.439050000000    -0.393002   
O48      O      0.562330000000     0.498300000000     0.494460000000    -0.398569   
O49      O      0.091600000000     0.320510000000     0.828990000000    -0.390794   
O50      O      0.161420000000     0.263670000000     0.778480000000    -0.39553    
O51      O      0.142130000000     0.290570000000     0.895720000000    -0.392561   
O52      O      0.112270000000     0.292520000000     0.711640000000    -0.39504    
O53      O      0.170540000000     0.358330000000     0.702080000000    -0.395432   
O54      O      0.200870000000     0.355960000000     0.885180000000    -0.395388   
O55      O      0.220740000000     0.328150000000     0.767140000000    -0.391703   
O56      O      0.150950000000     0.385100000000     0.819260000000    -0.396706   
O57      O      0.269240000000     0.168410000000     0.650860000000    -0.400095   
O58      O      0.330120000000     0.102490000000     0.603490000000    -0.395882   
O59      O      0.300430000000     0.121560000000     0.720160000000    -0.391856   
O60      O      0.299180000000     0.150850000000     0.535070000000    -0.392893   
O61      O      0.362900000000     0.211250000000     0.547810000000    -0.395953   
O62      O      0.366170000000     0.180100000000     0.729540000000    -0.397331   
O63      O      0.394360000000     0.162960000000     0.612130000000    -0.393737   
O64      O      0.332900000000     0.228590000000     0.665780000000    -0.389665   
O65      O      0.988240000000     0.432940000000     0.928120000000    -0.39101    
O66      O      0.936610000000     0.506140000000     0.986170000000    -0.398269   
O67      O      0.962180000000     0.487590000000     0.865000000000    -0.398423   
O68      O      0.959920000000     0.453490000000     0.046290000000    -0.399374   
O69      O      0.026590000000     0.510480000000     0.059430000000    -0.397095   
O70      O      0.029830000000     0.542440000000     0.876040000000    -0.396751   
O71      O      0.003180000000     0.564200000000     0.992700000000    -0.397063   
O72      O      0.054450000000     0.489650000000     0.943300000000    -0.399381   
O73      O      0.602130000000     0.832230000000     0.330370000000    -0.396158   
O74      O      0.657040000000     0.760330000000     0.278380000000    -0.390424   
O75      O      0.630370000000     0.781660000000     0.395650000000    -0.396216   
O76      O      0.627730000000     0.811920000000     0.213290000000    -0.397297   
O77      O      0.694490000000     0.869030000000     0.222010000000    -0.394318   
O78      O      0.696060000000     0.839820000000     0.406350000000    -0.394429   
O79      O      0.722530000000     0.818780000000     0.289880000000    -0.396974   
O80      O      0.667810000000     0.890830000000     0.339010000000    -0.392221   
O81      O      0.765470000000     0.651250000000     0.181800000000    -0.385511   
O82      O      0.840660000000     0.598930000000     0.131000000000    -0.390851   
O83      O      0.817520000000     0.622580000000     0.247220000000    -0.395699   
O84      O      0.788740000000     0.626530000000     0.064120000000    -0.395562   
O85      O      0.844950000000     0.693630000000     0.056230000000    -0.392226   
O86      O      0.874300000000     0.689560000000     0.239990000000    -0.394062   
O87      O      0.897170000000     0.665590000000     0.121050000000    -0.393495   
O88      O      0.823340000000     0.717020000000     0.173840000000    -0.399887   
O89      O      0.506490000000     0.938740000000     0.452490000000    -0.398905   
O90      O      0.437230000000     0.996010000000     0.503320000000    -0.392131   
O91      O      0.455960000000     0.966840000000     0.386430000000    -0.393991   
O92      O      0.488630000000     0.967160000000     0.569120000000    -0.394617   
O93      O      0.545990000000     0.033320000000     0.557320000000    -0.393294   
O94      O      0.514240000000     0.032090000000     0.373270000000    -0.393234   
O95      O      0.495520000000     0.060890000000     0.489570000000    -0.395476   
O96      O      0.565460000000     0.003330000000     0.440480000000    -0.389575   
O97      O      0.397500000000     0.227500000000     0.110500000000    -0.398364   
O98      O      0.333240000000     0.101940000000     0.167170000000    -0.393653   
O99      O      0.362990000000     0.147230000000     0.047710000000    -0.394147   
O100     O      0.368640000000     0.183960000000     0.229190000000    -0.395654   
O101     O      0.303930000000     0.179340000000     0.219430000000    -0.394463   
O102     O      0.300000000000     0.145820000000     0.035800000000    -0.39297    
O103     O      0.270500000000     0.100470000000     0.153700000000    -0.396779   
O104     O      0.334540000000     0.226600000000     0.101530000000    -0.393913   
O105     O      0.503220000000     0.434960000000     0.988980000000    -0.395178   
O106     O      0.564480000000     0.561960000000     0.938370000000    -0.39213    
O107     O      0.548750000000     0.513800000000     0.055730000000    -0.392002   
O108     O      0.518260000000     0.480960000000     0.872480000000    -0.394336   
O109     O      0.457380000000     0.483810000000     0.884410000000    -0.394536   
O110     O      0.487390000000     0.515490000000     0.068380000000    -0.393089   
O111     O      0.502750000000     0.562370000000     0.952070000000    -0.396478   
O112     O      0.441510000000     0.435630000000     0.000780000000    -0.395005   
O113     O      0.224530000000     0.892660000000     0.274060000000    -0.392224   
O114     O      0.153400000000     0.766020000000     0.324870000000    -0.397414   
O115     O      0.173190000000     0.812720000000     0.208370000000    -0.395805   
O116     O      0.204540000000     0.844280000000     0.391490000000    -0.396463   
O117     O      0.146830000000     0.852750000000     0.402890000000    -0.393037   
O118     O      0.115340000000     0.820780000000     0.219730000000    -0.394506   
O119     O      0.094930000000     0.773160000000     0.336600000000    -0.397009   
O120     O      0.165630000000     0.898930000000     0.286540000000    -0.401094   
O121     O      0.046430000000     0.562390000000     0.437410000000    -0.402503   
O122     O      0.989950000000     0.437180000000     0.490870000000    -0.397883   
O123     O      0.012090000000     0.482930000000     0.372120000000    -0.398141   
O124     O      0.024510000000     0.518070000000     0.555050000000    -0.397643   
O125     O      0.958320000000     0.510560000000     0.552930000000    -0.395513   
O126     O      0.948070000000     0.480110000000     0.367330000000    -0.392586   
O127     O      0.924740000000     0.431690000000     0.484980000000    -0.393523   
O128     O      0.982320000000     0.559000000000     0.436200000000    -0.391394   
O129     O      0.892150000000     0.229820000000     0.614770000000    -0.39374    
O130     O      0.825670000000     0.103240000000     0.667240000000    -0.3958     
O131     O      0.847650000000     0.150130000000     0.549950000000    -0.402298   
O132     O      0.870860000000     0.182820000000     0.732560000000    -0.401553   
O133     O      0.811140000000     0.188430000000     0.737120000000    -0.392798   
O134     O      0.785540000000     0.151260000000     0.553670000000    -0.392193   
O135     O      0.764850000000     0.106680000000     0.673580000000    -0.393622   
O136     O      0.830870000000     0.232100000000     0.617220000000    -0.39675    
O137     O      0.665880000000     0.773150000000     0.839610000000    -0.390814   
O138     O      0.723230000000     0.900170000000     0.788940000000    -0.395011   
O139     O      0.696170000000     0.853030000000     0.906110000000    -0.394167   
O140     O      0.693560000000     0.821240000000     0.722090000000    -0.394213   
O141     O      0.627500000000     0.813540000000     0.713200000000    -0.398717   
O142     O      0.630890000000     0.846660000000     0.895600000000    -0.397142   
O143     O      0.658240000000     0.894090000000     0.778240000000    -0.394529   
O144     O      0.601020000000     0.768050000000     0.829840000000    -0.399025   
S1       S      0.642310000000     0.961790000000     0.761460000000    -0.0240201  
S2       S      0.974140000000     0.298320000000     0.590550000000    -0.0288198  
S3       S      0.968720000000     0.628430000000     0.420230000000    -0.0244499  
S4       S      0.480870000000     0.617410000000     0.894530000000    -0.0298906  
S5       S      0.197380000000     0.049920000000     0.223200000000    -0.0294744  
S6       S      0.520070000000     0.370530000000     0.021800000000    -0.0343331  
S7       S      0.569990000000     0.764070000000     0.490350000000    -0.0317325  
S8       S      0.570330000000     0.806750000000     0.990840000000    -0.0297809  
S9       S      0.680460000000     0.635040000000     0.196910000000    -0.0232005  
S10      S      0.649130000000     0.016890000000     0.425100000000    -0.0266224  
S11      S      0.088160000000     0.562810000000     0.777020000000    -0.030709   
S12      S      0.908300000000     0.477410000000     0.129570000000    -0.0633796  
S13      S      0.956510000000     0.683420000000     0.024880000000    -0.0253101  
S14      S      0.423920000000     0.188430000000     0.952170000000    -0.0322254  
S15      S      0.424810000000     0.231910000000     0.453750000000    -0.0311496  
S16      S      0.353180000000     0.980640000000     0.515780000000    -0.0239104  
S17      S      0.007690000000     0.307700000000     0.837380000000    -0.0244848  
S18      S      0.144000000000     0.193680000000     0.704730000000    -0.0298501  
S19      S      0.408920000000     0.495530000000     0.656390000000    -0.0353028  
S20      S      0.567900000000     0.471250000000     0.150710000000    -0.0300594  
S21      S      0.794440000000     0.227940000000     0.965540000000    -0.0297119  
S22      S      0.898110000000     0.172800000000     0.321960000000    -0.0264025  
S23      S      0.077080000000     0.231130000000     0.482250000000    -0.0340443  
S24      S      0.246690000000     0.416110000000     0.113000000000    -0.0357779  
S25      S      0.925960000000     0.238900000000     0.308090000000    -0.0230965  
S26      S      0.368050000000     0.343560000000     0.425410000000    -0.0236852  
S27      S      0.507690000000     0.916680000000     0.657350000000    -0.0387352  
S28      S      0.437550000000     0.906820000000     0.289880000000    -0.0320104  
S29      S      0.699020000000     0.182330000000     0.098580000000    -0.0318533  
S30      S      0.161820000000     0.919930000000     0.491390000000    -0.0331134  
S31      S      0.091910000000     0.856700000000     0.121630000000    -0.0288055  
S32      S      0.290050000000     0.980140000000     0.851700000000    -0.0234979  
S33      S      0.835010000000     0.748570000000     0.968270000000    -0.0322374  
S34      S      0.807470000000     0.565260000000     0.470360000000    -0.0304438  
S35      S      0.624020000000     0.640390000000     0.521500000000    -0.0230101  
S36      S      0.035180000000     0.680330000000     0.770880000000    -0.0255066  


