data_structure

_audit_creation_method RASPA-1.0
_audit_creation_date 2023-6-4
_audit_author_name 'Poobodin Mano'

_cell_length_a    28.9912
_cell_length_b    29.5936
_cell_length_c    21.4591
_cell_angle_alpha 89.9989
_cell_angle_beta  89.9989
_cell_angle_gamma 96.7689
_cell_volume      18282.6

_symmetry_cell_setting          triclinic
_symmetry_space_group_name_Hall 'P 1'
_symmetry_space_group_name_H-M  'P 1'
_symmetry_Int_Tables_number     1

_symmetry_equiv_pos_as_xyz 'x,y,z'

loop_
_atom_site_label
_atom_site_type_symbol
_atom_site_fract_x
_atom_site_fract_y
_atom_site_fract_z
_atom_site_charge
C1       C      0.059340000000     0.426600000000     0.003110000000     0.386813   
C2       C      0.433850000000     0.049470000000     0.008990000000     0.38696    
C3       C      0.064720000000     0.054010000000     0.004640000000     0.423188   
C4       C      0.428870000000     0.422250000000     0.005650000000     0.42365    
C5       C      0.051480000000     0.421000000000     0.499980000000     0.38637    
C6       C      0.431310000000     0.048720000000     0.499930000000     0.386385   
C7       C      0.061480000000     0.047950000000     0.499650000000     0.427238   
C8       C      0.421070000000     0.421830000000     0.499330000000     0.426898   
C9       C      0.245700000000     0.236960000000     0.879870000000     0.46075    
C10      C      0.242090000000     0.237170000000     0.120040000000     0.458398   
C11      C      0.303210000000     0.176200000000     0.006080000000     0.427383   
C12      C      0.186450000000     0.297660000000     0.001230000000     0.442079   
C13      C      0.240660000000     0.233940000000     0.379960000000     0.463404   
C14      C      0.240400000000     0.233990000000     0.620220000000     0.466771   
C15      C      0.303430000000     0.177500000000     0.500780000000     0.443241   
C16      C      0.179740000000     0.292530000000     0.501280000000     0.443404   
C17      C      0.273370000000     0.265410000000     0.780910000000     0.0305776  
C18      C      0.212550000000     0.205480000000     0.785490000000     0.0167009  
C19      C      0.271290000000     0.264490000000     0.715770000000     0.0303083  
C20      C      0.210070000000     0.204290000000     0.720120000000     0.0685738  
C21      C      0.273980000000     0.263730000000     0.218290000000     0.0301568  
C22      C      0.209320000000     0.207850000000     0.215270000000     0.0179229  
C23      C      0.273140000000     0.262240000000     0.283680000000     0.0297275  
C24      C      0.208580000000     0.205530000000     0.280470000000     0.0678529  
C25      C      0.117250000000     0.389500000000     0.456570000000     0.0267233  
C26      C      0.080450000000     0.355400000000     0.545050000000     0.0139758  
C27      C      0.150660000000     0.358360000000     0.459210000000     0.0324636  
C28      C      0.111460000000     0.321640000000     0.544730000000     0.069094   
C29      C      0.354290000000     0.316520000000     0.458450000000     0.0284524  
C30      C      0.315750000000     0.350170000000     0.540650000000     0.0156553  
C31      C      0.387460000000     0.353660000000     0.456910000000     0.0372022  
C32      C      0.349560000000     0.387110000000     0.540960000000     0.0747439  
C33      C      0.365640000000     0.080290000000     0.456420000000     0.0266002  
C34      C      0.402520000000     0.114470000000     0.544810000000     0.0140701  
C35      C      0.332350000000     0.111540000000     0.458900000000     0.0323662  
C36      C      0.371650000000     0.148340000000     0.544290000000     0.068645   
C37      C      0.125780000000     0.155250000000     0.463380000000     0.0288372  
C38      C      0.168580000000     0.117620000000     0.537210000000     0.016563   
C39      C      0.092570000000     0.118170000000     0.461390000000     0.0377034  
C40      C      0.134430000000     0.080990000000     0.537980000000     0.0748439  
C41      C      0.124440000000     0.395070000000     0.957470000000     0.0267272  
C42      C      0.089510000000     0.361960000000     0.047890000000     0.0142327  
C43      C      0.157920000000     0.363950000000     0.959540000000     0.0322018  
C44      C      0.120400000000     0.328330000000     0.047140000000     0.0678225  
C45      C      0.360750000000     0.318670000000     0.957790000000     0.0308845  
C46      C      0.326100000000     0.346370000000     0.047700000000     0.0135497  
C47      C      0.394200000000     0.355810000000     0.958610000000     0.0367479  
C48      C      0.360280000000     0.382960000000     0.050510000000     0.0760222  
C49      C      0.362970000000     0.139030000000     0.957550000000     0.0306409  
C50      C      0.341300000000     0.119720000000     0.060180000000     0.0143476  
C51      C      0.394640000000     0.106150000000     0.958170000000     0.0264424  
C52      C      0.374760000000     0.088420000000     0.062510000000     0.0650079  
C53      C      0.090010000000     0.127630000000     0.972970000000     0.0362641  
C54      C      0.140650000000     0.084160000000     0.029070000000     0.0383864  
C55      C      0.124100000000     0.164100000000     0.971640000000     0.0362368  
C56      C      0.175900000000     0.119580000000     0.022340000000     0.0270611  
C57      C      0.059340000000     0.926600000000     0.003110000000     0.386738   
C58      C      0.433850000000     0.549470000000     0.008990000000     0.386966   
C59      C      0.064720000000     0.554010000000     0.004640000000     0.423254   
C60      C      0.428870000000     0.922250000000     0.005650000000     0.423576   
C61      C      0.051480000000     0.921000000000     0.499980000000     0.386294   
C62      C      0.431310000000     0.548720000000     0.499930000000     0.386418   
C63      C      0.061480000000     0.547950000000     0.499650000000     0.427301   
C64      C      0.421070000000     0.921830000000     0.499330000000     0.426775   
C65      C      0.245700000000     0.736970000000     0.879870000000     0.460748   
C66      C      0.242090000000     0.737170000000     0.120040000000     0.458398   
C67      C      0.303200000000     0.676200000000     0.006080000000     0.427433   
C68      C      0.186450000000     0.797660000000     0.001230000000     0.442075   
C69      C      0.240670000000     0.733940000000     0.379960000000     0.4634     
C70      C      0.240400000000     0.733990000000     0.620220000000     0.466774   
C71      C      0.303430000000     0.677500000000     0.500780000000     0.443236   
C72      C      0.179740000000     0.792530000000     0.501280000000     0.443405   
C73      C      0.273370000000     0.765410000000     0.780910000000     0.0305488  
C74      C      0.212550000000     0.705480000000     0.785490000000     0.0166812  
C75      C      0.271290000000     0.764490000000     0.715770000000     0.0303127  
C76      C      0.210080000000     0.704290000000     0.720120000000     0.0685994  
C77      C      0.273980000000     0.763730000000     0.218290000000     0.0302073  
C78      C      0.209320000000     0.707850000000     0.215270000000     0.0178791  
C79      C      0.273140000000     0.762240000000     0.283680000000     0.0296938  
C80      C      0.208580000000     0.705530000000     0.280470000000     0.0678697  
C81      C      0.117250000000     0.889500000000     0.456570000000     0.026696   
C82      C      0.080450000000     0.855400000000     0.545050000000     0.0139497  
C83      C      0.150660000000     0.858360000000     0.459210000000     0.0324482  
C84      C      0.111460000000     0.821640000000     0.544730000000     0.0690935  
C85      C      0.354290000000     0.816520000000     0.458450000000     0.0284935  
C86      C      0.315750000000     0.850170000000     0.540650000000     0.0156092  
C87      C      0.387460000000     0.853660000000     0.456910000000     0.0371672  
C88      C      0.349560000000     0.887110000000     0.540960000000     0.0747558  
C89      C      0.365640000000     0.580290000000     0.456420000000     0.0265763  
C90      C      0.402520000000     0.614470000000     0.544810000000     0.0140499  
C91      C      0.332350000000     0.611540000000     0.458900000000     0.0323397  
C92      C      0.371650000000     0.648340000000     0.544290000000     0.0686377  
C93      C      0.125780000000     0.655250000000     0.463380000000     0.0288286  
C94      C      0.168580000000     0.617620000000     0.537210000000     0.0165419  
C95      C      0.092570000000     0.618170000000     0.461390000000     0.0376968  
C96      C      0.134430000000     0.580990000000     0.537980000000     0.0748568  
C97      C      0.124440000000     0.895070000000     0.957470000000     0.0267029  
C98      C      0.089510000000     0.861970000000     0.047890000000     0.0142613  
C99      C      0.157920000000     0.863950000000     0.959540000000     0.0321806  
C100     C      0.120400000000     0.828330000000     0.047140000000     0.0678018  
C101     C      0.360750000000     0.818670000000     0.957790000000     0.0308625  
C102     C      0.326100000000     0.846370000000     0.047700000000     0.0135299  
C103     C      0.394200000000     0.855820000000     0.958610000000     0.0367817  
C104     C      0.360280000000     0.882960000000     0.050510000000     0.0760356  
C105     C      0.362970000000     0.639030000000     0.957550000000     0.0306249  
C106     C      0.341300000000     0.619720000000     0.060180000000     0.0143248  
C107     C      0.394640000000     0.606150000000     0.958170000000     0.0264221  
C108     C      0.374760000000     0.588420000000     0.062510000000     0.0650035  
C109     C      0.090010000000     0.627630000000     0.972970000000     0.036233   
C110     C      0.140650000000     0.584160000000     0.029070000000     0.0383653  
C111     C      0.124100000000     0.664090000000     0.971640000000     0.0362727  
C112     C      0.175900000000     0.619580000000     0.022340000000     0.0270448  
C113     C      0.559330000000     0.426600000000     0.003110000000     0.386934   
C114     C      0.933850000000     0.049470000000     0.008990000000     0.386885   
C115     C      0.564720000000     0.054010000000     0.004640000000     0.423286   
C116     C      0.928870000000     0.422250000000     0.005650000000     0.423573   
C117     C      0.551480000000     0.421000000000     0.499980000000     0.38644    
C118     C      0.931310000000     0.048720000000     0.499930000000     0.386306   
C119     C      0.561480000000     0.047950000000     0.499650000000     0.427279   
C120     C      0.921070000000     0.421830000000     0.499330000000     0.426822   
C121     C      0.745700000000     0.236960000000     0.879870000000     0.460747   
C122     C      0.742090000000     0.237170000000     0.120040000000     0.458402   
C123     C      0.803210000000     0.176200000000     0.006080000000     0.427379   
C124     C      0.686450000000     0.297660000000     0.001230000000     0.442018   
C125     C      0.740660000000     0.233940000000     0.379960000000     0.463401   
C126     C      0.740400000000     0.233990000000     0.620220000000     0.466772   
C127     C      0.803430000000     0.177500000000     0.500780000000     0.443238   
C128     C      0.679740000000     0.292530000000     0.501280000000     0.443399   
C129     C      0.773370000000     0.265410000000     0.780910000000     0.0305695  
C130     C      0.712550000000     0.205480000000     0.785490000000     0.0166919  
C131     C      0.771290000000     0.264490000000     0.715770000000     0.0303033  
C132     C      0.710070000000     0.204290000000     0.720120000000     0.0685742  
C133     C      0.773980000000     0.263730000000     0.218290000000     0.0301959  
C134     C      0.709320000000     0.207850000000     0.215270000000     0.0178768  
C135     C      0.773140000000     0.262240000000     0.283680000000     0.0297105  
C136     C      0.708580000000     0.205530000000     0.280470000000     0.0678656  
C137     C      0.617250000000     0.389500000000     0.456570000000     0.0266993  
C138     C      0.580450000000     0.355400000000     0.545050000000     0.0139438  
C139     C      0.650660000000     0.358360000000     0.459210000000     0.0324557  
C140     C      0.611460000000     0.321640000000     0.544730000000     0.0690704  
C141     C      0.854290000000     0.316520000000     0.458450000000     0.0284434  
C142     C      0.815750000000     0.350170000000     0.540650000000     0.0156521  
C143     C      0.887460000000     0.353660000000     0.456910000000     0.0371649  
C144     C      0.849560000000     0.387110000000     0.540960000000     0.0747286  
C145     C      0.865640000000     0.080290000000     0.456420000000     0.0265778  
C146     C      0.902520000000     0.114470000000     0.544810000000     0.0140376  
C147     C      0.832350000000     0.111540000000     0.458900000000     0.032358   
C148     C      0.871650000000     0.148340000000     0.544290000000     0.0686307  
C149     C      0.625780000000     0.155250000000     0.463380000000     0.0288236  
C150     C      0.668580000000     0.117620000000     0.537210000000     0.0165565  
C151     C      0.592570000000     0.118170000000     0.461390000000     0.0376721  
C152     C      0.634430000000     0.080990000000     0.537980000000     0.0748329  
C153     C      0.624440000000     0.395070000000     0.957470000000     0.0267118  
C154     C      0.589510000000     0.361960000000     0.047890000000     0.0141834  
C155     C      0.657920000000     0.363950000000     0.959540000000     0.032171   
C156     C      0.620400000000     0.328330000000     0.047140000000     0.0678347  
C157     C      0.860750000000     0.318670000000     0.957790000000     0.0308658  
C158     C      0.826100000000     0.346370000000     0.047700000000     0.0135422  
C159     C      0.894200000000     0.355810000000     0.958610000000     0.0367187  
C160     C      0.860280000000     0.382960000000     0.050510000000     0.0760041  
C161     C      0.862970000000     0.139030000000     0.957550000000     0.0306195  
C162     C      0.841300000000     0.119720000000     0.060180000000     0.0143346  
C163     C      0.894640000000     0.106150000000     0.958170000000     0.026411   
C164     C      0.874760000000     0.088420000000     0.062510000000     0.064985   
C165     C      0.590010000000     0.127630000000     0.972970000000     0.0362606  
C166     C      0.640650000000     0.084160000000     0.029070000000     0.0383544  
C167     C      0.624100000000     0.164100000000     0.971640000000     0.0361625  
C168     C      0.675900000000     0.119580000000     0.022340000000     0.0271047  
C169     C      0.559340000000     0.926600000000     0.003110000000     0.386811   
C170     C      0.933850000000     0.549470000000     0.008990000000     0.386891   
C171     C      0.564720000000     0.554010000000     0.004640000000     0.423352   
C172     C      0.928870000000     0.922250000000     0.005650000000     0.423498   
C173     C      0.551480000000     0.921000000000     0.499980000000     0.386366   
C174     C      0.931310000000     0.548720000000     0.499930000000     0.386343   
C175     C      0.561480000000     0.547950000000     0.499650000000     0.4274     
C176     C      0.921070000000     0.921830000000     0.499330000000     0.426697   
C177     C      0.745700000000     0.736970000000     0.879870000000     0.460747   
C178     C      0.742090000000     0.737170000000     0.120040000000     0.4584     
C179     C      0.803210000000     0.676200000000     0.006080000000     0.427222   
C180     C      0.686450000000     0.797660000000     0.001230000000     0.442013   
C181     C      0.740660000000     0.733940000000     0.379960000000     0.463399   
C182     C      0.740400000000     0.733990000000     0.620220000000     0.466769   
C183     C      0.803420000000     0.677500000000     0.500780000000     0.443295   
C184     C      0.679740000000     0.792530000000     0.501280000000     0.443551   
C185     C      0.773370000000     0.765410000000     0.780910000000     0.0305439  
C186     C      0.712550000000     0.705480000000     0.785490000000     0.0166903  
C187     C      0.771290000000     0.764490000000     0.715770000000     0.0303055  
C188     C      0.710070000000     0.704290000000     0.720120000000     0.06857    
C189     C      0.773970000000     0.763730000000     0.218290000000     0.0302023  
C190     C      0.709320000000     0.707850000000     0.215270000000     0.0179111  
C191     C      0.773140000000     0.762240000000     0.283680000000     0.0296941  
C192     C      0.708580000000     0.705530000000     0.280470000000     0.0678483  
C193     C      0.617250000000     0.889500000000     0.456570000000     0.0266684  
C194     C      0.580450000000     0.855400000000     0.545050000000     0.0139153  
C195     C      0.650660000000     0.858360000000     0.459210000000     0.0324483  
C196     C      0.611460000000     0.821640000000     0.544730000000     0.069076   
C197     C      0.854290000000     0.816520000000     0.458450000000     0.0284768  
C198     C      0.815750000000     0.850170000000     0.540650000000     0.0155879  
C199     C      0.887460000000     0.853660000000     0.456910000000     0.0371415  
C200     C      0.849560000000     0.887110000000     0.540960000000     0.0747466  
C201     C      0.865640000000     0.580290000000     0.456420000000     0.0265582  
C202     C      0.902520000000     0.614470000000     0.544810000000     0.0140189  
C203     C      0.832350000000     0.611540000000     0.458900000000     0.0323218  
C204     C      0.871650000000     0.648340000000     0.544290000000     0.0686203  
C205     C      0.625780000000     0.655250000000     0.463380000000     0.0288102  
C206     C      0.668580000000     0.617620000000     0.537210000000     0.0165368  
C207     C      0.592570000000     0.618170000000     0.461390000000     0.0376733  
C208     C      0.634430000000     0.580990000000     0.537980000000     0.0748483  
C209     C      0.624440000000     0.895070000000     0.957470000000     0.0266905  
C210     C      0.589510000000     0.861970000000     0.047890000000     0.0142231  
C211     C      0.657920000000     0.863950000000     0.959540000000     0.0321486  
C212     C      0.620400000000     0.828330000000     0.047140000000     0.0678051  
C213     C      0.860750000000     0.818670000000     0.957790000000     0.0308411  
C214     C      0.826090000000     0.846370000000     0.047700000000     0.0134897  
C215     C      0.894200000000     0.855820000000     0.958610000000     0.0367546  
C216     C      0.860280000000     0.882960000000     0.050510000000     0.0760344  
C217     C      0.862970000000     0.639030000000     0.957550000000     0.0306     
C218     C      0.841300000000     0.619720000000     0.060180000000     0.0143067  
C219     C      0.894640000000     0.606150000000     0.958170000000     0.0263952  
C220     C      0.874770000000     0.588420000000     0.062510000000     0.0650171  
C221     C      0.590010000000     0.627630000000     0.972970000000     0.0362091  
C222     C      0.640650000000     0.584160000000     0.029070000000     0.0383548  
C223     C      0.624100000000     0.664090000000     0.971640000000     0.0362497  
C224     C      0.675900000000     0.619580000000     0.022340000000     0.0270422  
Cu1      Cu     0.496430000000     0.989190000000     0.948170000000     0.849143   
Cu2      Cu     0.997630000000     0.487180000000     0.062950000000     0.846765   
Cu3      Cu     0.491380000000     0.984920000000     0.442480000000     0.850652   
Cu4      Cu     0.991370000000     0.484780000000     0.557010000000     0.846901   
Cu5      Cu     0.280240000000     0.269640000000     0.997650000000     1.0787     
Cu6      Cu     0.211050000000     0.205500000000     0.002270000000     1.1365     
Cu7      Cu     0.274620000000     0.268420000000     0.499940000000     1.10141    
Cu8      Cu     0.207930000000     0.200990000000     0.500190000000     1.12374    
Cu9      Cu     0.496430000000     0.489190000000     0.948170000000     0.84983    
Cu10     Cu     0.997630000000     0.987190000000     0.062950000000     0.846146   
Cu11     Cu     0.491380000000     0.484920000000     0.442480000000     0.851229   
Cu12     Cu     0.991370000000     0.984790000000     0.557010000000     0.84633    
Cu13     Cu     0.280240000000     0.769640000000     0.997650000000     1.07871    
Cu14     Cu     0.211050000000     0.705500000000     0.002270000000     1.1365     
Cu15     Cu     0.274620000000     0.768420000000     0.499940000000     1.10151    
Cu16     Cu     0.207930000000     0.700990000000     0.500190000000     1.1237     
Cu17     Cu     0.996430000000     0.989190000000     0.948170000000     0.84835    
Cu18     Cu     0.497630000000     0.487180000000     0.062950000000     0.84756    
Cu19     Cu     0.991380000000     0.984920000000     0.442480000000     0.849807   
Cu20     Cu     0.491370000000     0.484780000000     0.557010000000     0.847692   
Cu21     Cu     0.780240000000     0.269640000000     0.997650000000     1.07868    
Cu22     Cu     0.711050000000     0.205500000000     0.002270000000     1.13658    
Cu23     Cu     0.774620000000     0.268420000000     0.499940000000     1.10141    
Cu24     Cu     0.707930000000     0.200990000000     0.500190000000     1.12374    
Cu25     Cu     0.996430000000     0.489190000000     0.948170000000     0.849036   
Cu26     Cu     0.497630000000     0.987190000000     0.062950000000     0.846936   
Cu27     Cu     0.991380000000     0.484920000000     0.442480000000     0.850441   
Cu28     Cu     0.491370000000     0.984790000000     0.557010000000     0.847111   
Cu29     Cu     0.780240000000     0.769640000000     0.997650000000     1.07869    
Cu30     Cu     0.711050000000     0.705500000000     0.002270000000     1.13656    
Cu31     Cu     0.774620000000     0.768420000000     0.499940000000     1.10141    
Cu32     Cu     0.707930000000     0.700990000000     0.500190000000     1.12376    
H1       H      0.295720000000     0.288610000000     0.690890000000     0.0379354  
H2       H      0.298870000000     0.290210000000     0.802700000000     0.037962   
H3       H      0.188360000000     0.181910000000     0.811660000000     0.0432018  
H4       H      0.125840000000     0.186140000000     0.681690000000     0.0390755  
H5       H      0.299190000000     0.284880000000     0.308170000000     0.0377516  
H6       H      0.300480000000     0.287040000000     0.195730000000     0.03558    
H7       H      0.183680000000     0.185300000000     0.189840000000     0.0467965  
H8       H      0.185890000000     0.123570000000     0.318880000000     0.039782   
H9       H      0.178070000000     0.361430000000     0.424530000000     0.0361486  
H10      H      0.120930000000     0.415430000000     0.420630000000     0.0381064  
H11      H      0.053640000000     0.353570000000     0.580560000000     0.0422396  
H12      H      0.076860000000     0.243020000000     0.584810000000     0.0423771  
H13      H      0.415740000000     0.353420000000     0.423780000000     0.0353808  
H14      H      0.356380000000     0.288400000000     0.426810000000     0.0314964  
H15      H      0.286190000000     0.349010000000     0.571640000000     0.0376163  
H16      H      0.361490000000     0.427480000000     0.646920000000     0.0418138  
H17      H      0.304920000000     0.108470000000     0.424240000000     0.0349054  
H18      H      0.361890000000     0.054290000000     0.420580000000     0.0378907  
H19      H      0.429320000000     0.116280000000     0.580320000000     0.0418048  
H20      H      0.406760000000     0.226870000000     0.583910000000     0.0432475  
H21      H      0.062600000000     0.119770000000     0.431460000000     0.0352691  
H22      H      0.122110000000     0.184990000000     0.435380000000     0.0332613  
H23      H      0.199630000000     0.117400000000     0.565150000000     0.0395049  
H24      H      0.126610000000     0.037180000000     0.641630000000     0.042892   
H25      H      0.184600000000     0.366380000000     0.923850000000     0.0353268  
H26      H      0.127250000000     0.420580000000     0.920960000000     0.0367544  
H27      H      0.063460000000     0.360500000000     0.084390000000     0.043217   
H28      H      0.086590000000     0.250350000000     0.090270000000     0.0452925  
H29      H      0.420790000000     0.358090000000     0.922770000000     0.0356657  
H30      H      0.360910000000     0.293220000000     0.921650000000     0.0324332  
H31      H      0.297620000000     0.343500000000     0.080580000000     0.0353554  
H32      H      0.377290000000     0.414130000000     0.161090000000     0.041388   
H33      H      0.414790000000     0.102590000000     0.916260000000     0.037745   
H34      H      0.359910000000     0.158660000000     0.915360000000     0.0321778  
H35      H      0.321400000000     0.124930000000     0.101870000000     0.0338559  
H36      H      0.344170000000     0.021670000000     0.133020000000     0.0381795  
H37      H      0.117810000000     0.195850000000     0.950160000000     0.02794    
H38      H      0.056520000000     0.131080000000     0.951980000000     0.0325971  
H39      H      0.147870000000     0.052270000000     0.049790000000     0.0283863  
H40      H      0.247400000000     0.085180000000     0.993610000000     0.019494   
H41      H      0.295720000000     0.788610000000     0.690890000000     0.0379274  
H42      H      0.298870000000     0.790200000000     0.802700000000     0.0379577  
H43      H      0.188360000000     0.681910000000     0.811660000000     0.0431921  
H44      H      0.125840000000     0.686140000000     0.681690000000     0.0390736  
H45      H      0.299190000000     0.784880000000     0.308170000000     0.0377487  
H46      H      0.300490000000     0.787040000000     0.195730000000     0.0355593  
H47      H      0.183680000000     0.685300000000     0.189840000000     0.0467969  
H48      H      0.185890000000     0.623570000000     0.318880000000     0.0397468  
H49      H      0.178070000000     0.861430000000     0.424530000000     0.0361236  
H50      H      0.120930000000     0.915430000000     0.420630000000     0.0380504  
H51      H      0.053640000000     0.853580000000     0.580560000000     0.0422383  
H52      H      0.076860000000     0.743020000000     0.584810000000     0.0423794  
H53      H      0.415740000000     0.853420000000     0.423780000000     0.0353814  
H54      H      0.356380000000     0.788400000000     0.426810000000     0.0314864  
H55      H      0.286190000000     0.849010000000     0.571640000000     0.0376151  
H56      H      0.361490000000     0.927480000000     0.646920000000     0.0417901  
H57      H      0.304920000000     0.608480000000     0.424240000000     0.0348812  
H58      H      0.361890000000     0.554290000000     0.420580000000     0.0378197  
H59      H      0.429320000000     0.616280000000     0.580320000000     0.0417844  
H60      H      0.406760000000     0.726870000000     0.583910000000     0.0432518  
H61      H      0.062600000000     0.619770000000     0.431460000000     0.035254   
H62      H      0.122110000000     0.684990000000     0.435380000000     0.0332614  
H63      H      0.199630000000     0.617400000000     0.565150000000     0.0394927  
H64      H      0.126610000000     0.537180000000     0.641630000000     0.0428451  
H65      H      0.184600000000     0.866380000000     0.923850000000     0.0352992  
H66      H      0.127250000000     0.920580000000     0.920960000000     0.036697   
H67      H      0.063460000000     0.860500000000     0.084390000000     0.0431939  
H68      H      0.086590000000     0.750360000000     0.090270000000     0.0452972  
H69      H      0.420790000000     0.858090000000     0.922770000000     0.0356447  
H70      H      0.360910000000     0.793220000000     0.921650000000     0.0324372  
H71      H      0.297620000000     0.843500000000     0.080580000000     0.0353476  
H72      H      0.377290000000     0.914130000000     0.161090000000     0.0413712  
H73      H      0.414790000000     0.602590000000     0.916260000000     0.0377096  
H74      H      0.359920000000     0.658660000000     0.915360000000     0.032168   
H75      H      0.321400000000     0.624930000000     0.101870000000     0.0338497  
H76      H      0.344170000000     0.521670000000     0.133020000000     0.0380718  
H77      H      0.117810000000     0.695850000000     0.950160000000     0.0279269  
H78      H      0.056520000000     0.631090000000     0.951980000000     0.0325847  
H79      H      0.147870000000     0.552270000000     0.049790000000     0.0283062  
H80      H      0.247400000000     0.585180000000     0.993610000000     0.0194422  
H81      H      0.795720000000     0.288610000000     0.690890000000     0.0379227  
H82      H      0.798870000000     0.290210000000     0.802700000000     0.037949   
H83      H      0.688360000000     0.181910000000     0.811660000000     0.0431873  
H84      H      0.625840000000     0.186140000000     0.681690000000     0.0390324  
H85      H      0.799200000000     0.284880000000     0.308170000000     0.0377373  
H86      H      0.800490000000     0.287040000000     0.195730000000     0.0355503  
H87      H      0.683680000000     0.185300000000     0.189840000000     0.0467882  
H88      H      0.685890000000     0.123570000000     0.318880000000     0.0397766  
H89      H      0.678080000000     0.361430000000     0.424530000000     0.0361421  
H90      H      0.620930000000     0.415430000000     0.420630000000     0.0380797  
H91      H      0.553640000000     0.353570000000     0.580560000000     0.0421467  
H92      H      0.576850000000     0.243020000000     0.584810000000     0.0422978  
H93      H      0.915730000000     0.353420000000     0.423780000000     0.0353133  
H94      H      0.856380000000     0.288400000000     0.426810000000     0.0314677  
H95      H      0.786190000000     0.349010000000     0.571640000000     0.0376144  
H96      H      0.861490000000     0.427480000000     0.646920000000     0.041787   
H97      H      0.804920000000     0.108470000000     0.424240000000     0.0348988  
H98      H      0.861890000000     0.054290000000     0.420580000000     0.0378813  
H99      H      0.929320000000     0.116280000000     0.580320000000     0.0417346  
H100     H      0.906760000000     0.226870000000     0.583910000000     0.0431812  
H101     H      0.562600000000     0.119770000000     0.431460000000     0.0351746  
H102     H      0.622100000000     0.184990000000     0.435380000000     0.0332269  
H103     H      0.699630000000     0.117400000000     0.565150000000     0.039506   
H104     H      0.626610000000     0.037180000000     0.641630000000     0.0428461  
H105     H      0.684600000000     0.366380000000     0.923850000000     0.0353209  
H106     H      0.627250000000     0.420580000000     0.920960000000     0.0367294  
H107     H      0.563460000000     0.360500000000     0.084390000000     0.0431362  
H108     H      0.586590000000     0.250350000000     0.090270000000     0.0452347  
H109     H      0.920790000000     0.358090000000     0.922770000000     0.0355992  
H110     H      0.860910000000     0.293220000000     0.921650000000     0.0324066  
H111     H      0.797620000000     0.343500000000     0.080580000000     0.0353533  
H112     H      0.877290000000     0.414130000000     0.161090000000     0.0413527  
H113     H      0.914790000000     0.102590000000     0.916260000000     0.0376874  
H114     H      0.859910000000     0.158660000000     0.915360000000     0.0321521  
H115     H      0.821400000000     0.124930000000     0.101870000000     0.0338456  
H116     H      0.844160000000     0.021670000000     0.133020000000     0.038176   
H117     H      0.617810000000     0.195850000000     0.950160000000     0.0279181  
H118     H      0.556520000000     0.131080000000     0.951980000000     0.0324803  
H119     H      0.647870000000     0.052270000000     0.049790000000     0.0283763  
H120     H      0.747400000000     0.085180000000     0.993610000000     0.0194958  
H121     H      0.795720000000     0.788610000000     0.690890000000     0.0379153  
H122     H      0.798870000000     0.790200000000     0.802700000000     0.0379439  
H123     H      0.688360000000     0.681910000000     0.811660000000     0.0431724  
H124     H      0.625840000000     0.686140000000     0.681690000000     0.0390292  
H125     H      0.799200000000     0.784880000000     0.308170000000     0.0377307  
H126     H      0.800490000000     0.787040000000     0.195730000000     0.0355394  
H127     H      0.683680000000     0.685300000000     0.189840000000     0.0467698  
H128     H      0.685890000000     0.623570000000     0.318880000000     0.0397421  
H129     H      0.678080000000     0.861430000000     0.424530000000     0.0361144  
H130     H      0.620930000000     0.915430000000     0.420630000000     0.0380228  
H131     H      0.553640000000     0.853580000000     0.580560000000     0.0421463  
H132     H      0.576860000000     0.743020000000     0.584810000000     0.0423067  
H133     H      0.915740000000     0.853420000000     0.423780000000     0.0353138  
H134     H      0.856380000000     0.788400000000     0.426810000000     0.0314614  
H135     H      0.786200000000     0.849010000000     0.571640000000     0.0376155  
H136     H      0.861490000000     0.927480000000     0.646920000000     0.0417636  
H137     H      0.804920000000     0.608480000000     0.424240000000     0.0348802  
H138     H      0.861890000000     0.554290000000     0.420580000000     0.0378098  
H139     H      0.929320000000     0.616280000000     0.580320000000     0.0417146  
H140     H      0.906760000000     0.726870000000     0.583910000000     0.0431865  
H141     H      0.562600000000     0.619770000000     0.431460000000     0.035156   
H142     H      0.622110000000     0.684990000000     0.435380000000     0.0332292  
H143     H      0.699630000000     0.617400000000     0.565150000000     0.0394941  
H144     H      0.626610000000     0.537180000000     0.641630000000     0.0427989  
H145     H      0.684600000000     0.866380000000     0.923850000000     0.0352934  
H146     H      0.627250000000     0.920580000000     0.920960000000     0.0366676  
H147     H      0.563460000000     0.860500000000     0.084390000000     0.0431094  
H148     H      0.586590000000     0.750360000000     0.090270000000     0.0452335  
H149     H      0.920790000000     0.858090000000     0.922770000000     0.0355767  
H150     H      0.860910000000     0.793220000000     0.921650000000     0.03241    
H151     H      0.797620000000     0.843500000000     0.080580000000     0.0353545  
H152     H      0.877290000000     0.914130000000     0.161090000000     0.0413366  
H153     H      0.914790000000     0.602590000000     0.916260000000     0.0376511  
H154     H      0.859910000000     0.658660000000     0.915360000000     0.0321465  
H155     H      0.821400000000     0.624930000000     0.101870000000     0.0338395  
H156     H      0.844170000000     0.521670000000     0.133020000000     0.0380842  
H157     H      0.617810000000     0.695850000000     0.950160000000     0.0278891  
H158     H      0.556520000000     0.631090000000     0.951980000000     0.0324729  
H159     H      0.647870000000     0.552270000000     0.049790000000     0.0282928  
H160     H      0.747400000000     0.585180000000     0.993610000000     0.0194433  
N1       N      0.244050000000     0.235870000000     0.815780000000    -0.183962   
N2       N      0.240150000000     0.233860000000     0.684710000000    -0.190268   
N3       N      0.241880000000     0.236650000000     0.184180000000    -0.183088   
N4       N      0.240400000000     0.233540000000     0.315410000000    -0.189749   
N5       N      0.082690000000     0.388760000000     0.500330000000    -0.167349   
N6       N      0.147300000000     0.323590000000     0.501990000000    -0.185764   
N7       N      0.319390000000     0.315790000000     0.500160000000    -0.243585   
N8       N      0.385680000000     0.388070000000     0.499160000000    -0.19016    
N9       N      0.400170000000     0.081010000000     0.500230000000    -0.167426   
N10      N      0.335820000000     0.146410000000     0.501520000000    -0.18579    
N11      N      0.163070000000     0.153760000000     0.500580000000    -0.245913   
N12      N      0.096520000000     0.081890000000     0.499700000000    -0.190807   
N13      N      0.090780000000     0.394700000000     0.002440000000    -0.16848    
N14      N      0.155210000000     0.329680000000     0.003010000000    -0.186569   
N15      N      0.327480000000     0.315070000000     0.002100000000    -0.239934   
N16      N      0.394330000000     0.387390000000     0.005360000000    -0.189105   
N17      N      0.334930000000     0.144500000000     0.007610000000    -0.179413   
N18      N      0.401310000000     0.080790000000     0.010550000000    -0.17411    
N19      N      0.098290000000     0.088960000000     0.003690000000    -0.185423   
N20      N      0.165640000000     0.159080000000     0.997430000000    -0.250026   
N21      N      0.244050000000     0.735870000000     0.815780000000    -0.183958   
N22      N      0.240150000000     0.733860000000     0.684710000000    -0.190284   
N23      N      0.241890000000     0.736650000000     0.184180000000    -0.183094   
N24      N      0.240400000000     0.733540000000     0.315410000000    -0.189748   
N25      N      0.082690000000     0.888760000000     0.500330000000    -0.167349   
N26      N      0.147300000000     0.823590000000     0.501990000000    -0.185768   
N27      N      0.319390000000     0.815780000000     0.500160000000    -0.243643   
N28      N      0.385680000000     0.888070000000     0.499160000000    -0.190152   
N29      N      0.400170000000     0.581010000000     0.500230000000    -0.167454   
N30      N      0.335820000000     0.646410000000     0.501520000000    -0.185793   
N31      N      0.163070000000     0.653760000000     0.500580000000    -0.245907   
N32      N      0.096520000000     0.581890000000     0.499700000000    -0.190838   
N33      N      0.090780000000     0.894700000000     0.002440000000    -0.168492   
N34      N      0.155210000000     0.829680000000     0.003010000000    -0.18657    
N35      N      0.327480000000     0.815070000000     0.002100000000    -0.23993    
N36      N      0.394330000000     0.887390000000     0.005360000000    -0.189119   
N37      N      0.334930000000     0.644500000000     0.007610000000    -0.179381   
N38      N      0.401310000000     0.580790000000     0.010550000000    -0.174134   
N39      N      0.098290000000     0.588960000000     0.003690000000    -0.185447   
N40      N      0.165640000000     0.659080000000     0.997430000000    -0.250037   
N41      N      0.744050000000     0.235870000000     0.815780000000    -0.183964   
N42      N      0.740150000000     0.233860000000     0.684710000000    -0.190269   
N43      N      0.741890000000     0.236650000000     0.184180000000    -0.183094   
N44      N      0.740400000000     0.233540000000     0.315410000000    -0.189753   
N45      N      0.582690000000     0.388760000000     0.500330000000    -0.167387   
N46      N      0.647300000000     0.323590000000     0.501990000000    -0.185769   
N47      N      0.819390000000     0.315790000000     0.500160000000    -0.243588   
N48      N      0.885680000000     0.388070000000     0.499160000000    -0.190155   
N49      N      0.900170000000     0.081010000000     0.500230000000    -0.167428   
N50      N      0.835820000000     0.146410000000     0.501520000000    -0.185794   
N51      N      0.663070000000     0.153760000000     0.500580000000    -0.245914   
N52      N      0.596520000000     0.081890000000     0.499700000000    -0.190837   
N53      N      0.590780000000     0.394700000000     0.002440000000    -0.168487   
N54      N      0.655200000000     0.329680000000     0.003010000000    -0.18654    
N55      N      0.827480000000     0.315070000000     0.002100000000    -0.239935   
N56      N      0.894330000000     0.387390000000     0.005360000000    -0.189103   
N57      N      0.834930000000     0.144500000000     0.007610000000    -0.179417   
N58      N      0.901310000000     0.080790000000     0.010550000000    -0.174113   
N59      N      0.598290000000     0.088960000000     0.003690000000    -0.185463   
N60      N      0.665650000000     0.159080000000     0.997430000000    -0.250076   
N61      N      0.744050000000     0.735870000000     0.815780000000    -0.183963   
N62      N      0.740150000000     0.733860000000     0.684710000000    -0.190272   
N63      N      0.741880000000     0.736650000000     0.184180000000    -0.183108   
N64      N      0.740400000000     0.733540000000     0.315410000000    -0.189751   
N65      N      0.582690000000     0.888760000000     0.500330000000    -0.167387   
N66      N      0.647300000000     0.823590000000     0.501990000000    -0.185799   
N67      N      0.819390000000     0.815780000000     0.500160000000    -0.243632   
N68      N      0.885680000000     0.888070000000     0.499160000000    -0.190149   
N69      N      0.900170000000     0.581010000000     0.500230000000    -0.167457   
N70      N      0.835820000000     0.646410000000     0.501520000000    -0.185763   
N71      N      0.663070000000     0.653760000000     0.500580000000    -0.245913   
N72      N      0.596520000000     0.581890000000     0.499700000000    -0.190877   
N73      N      0.590780000000     0.894700000000     0.002440000000    -0.16853    
N74      N      0.655200000000     0.829680000000     0.003010000000    -0.186539   
N75      N      0.827480000000     0.815070000000     0.002100000000    -0.239924   
N76      N      0.894330000000     0.887390000000     0.005360000000    -0.189121   
N77      N      0.834930000000     0.644500000000     0.007610000000    -0.17939    
N78      N      0.901310000000     0.580790000000     0.010550000000    -0.174151   
N79      N      0.598290000000     0.588960000000     0.003690000000    -0.185487   
N80      N      0.665640000000     0.659080000000     0.997430000000    -0.250043   
O1       O      0.047460000000     0.445320000000     0.952080000000    -0.378505   
O2       O      0.446740000000     0.033870000000     0.956340000000    -0.378797   
O3       O      0.044700000000     0.041990000000     0.953400000000    -0.413576   
O4       O      0.447340000000     0.436140000000     0.953880000000    -0.410986   
O5       O      0.443540000000     0.439450000000     0.057530000000    -0.410231   
O6       O      0.052710000000     0.034930000000     0.056580000000    -0.405646   
O7       O      0.452050000000     0.036070000000     0.059590000000    -0.377489   
O8       O      0.041430000000     0.437550000000     0.055110000000    -0.382266   
O9       O      0.041630000000     0.440520000000     0.448650000000    -0.378612   
O10      O      0.441180000000     0.029260000000     0.448570000000    -0.378835   
O11      O      0.040770000000     0.037100000000     0.448330000000    -0.413523   
O12      O      0.441840000000     0.432860000000     0.448060000000    -0.414417   
O13      O      0.434670000000     0.440220000000     0.550980000000    -0.412374   
O14      O      0.048140000000     0.029290000000     0.551250000000    -0.411768   
O15      O      0.450500000000     0.037630000000     0.551100000000    -0.379202   
O16      O      0.032230000000     0.432000000000     0.551140000000    -0.379108   
O17      O      0.274550000000     0.265390000000     0.907980000000    -0.452747   
O18      O      0.273650000000     0.261290000000     0.089390000000    -0.453352   
O19      O      0.316690000000     0.217070000000     0.989440000000    -0.432206   
O20      O      0.229480000000     0.309350000000     0.990560000000    -0.434729   
O21      O      0.172740000000     0.255750000000     0.010070000000    -0.445092   
O22      O      0.260110000000     0.166280000000     0.020950000000    -0.460002   
O23      O      0.210880000000     0.212570000000     0.090370000000    -0.457816   
O24      O      0.218050000000     0.209700000000     0.911950000000    -0.472463   
O25      O      0.272710000000     0.257710000000     0.409840000000    -0.457467   
O26      O      0.264870000000     0.265140000000     0.590170000000    -0.458749   
O27      O      0.315470000000     0.219740000000     0.510370000000    -0.438549   
O28      O      0.222350000000     0.305540000000     0.489750000000    -0.440395   
O29      O      0.167750000000     0.250310000000     0.511140000000    -0.440927   
O30      O      0.260750000000     0.164450000000     0.489640000000    -0.443055   
O31      O      0.216910000000     0.202920000000     0.589480000000    -0.464785   
O32      O      0.208850000000     0.211140000000     0.410970000000    -0.46372    
O33      O      0.047460000000     0.945320000000     0.952080000000    -0.378476   
O34      O      0.446740000000     0.533860000000     0.956340000000    -0.379086   
O35      O      0.044700000000     0.541990000000     0.953400000000    -0.413878   
O36      O      0.447340000000     0.936140000000     0.953880000000    -0.410935   
O37      O      0.443540000000     0.939450000000     0.057530000000    -0.410148   
O38      O      0.052710000000     0.534930000000     0.056580000000    -0.405913   
O39      O      0.452050000000     0.536070000000     0.059590000000    -0.377699   
O40      O      0.041430000000     0.937550000000     0.055110000000    -0.38219    
O41      O      0.041630000000     0.940520000000     0.448650000000    -0.378591   
O42      O      0.441180000000     0.529260000000     0.448570000000    -0.379122   
O43      O      0.040770000000     0.537100000000     0.448330000000    -0.413814   
O44      O      0.441840000000     0.932860000000     0.448060000000    -0.414356   
O45      O      0.434670000000     0.940230000000     0.550980000000    -0.412291   
O46      O      0.048140000000     0.529290000000     0.551250000000    -0.412018   
O47      O      0.450500000000     0.537630000000     0.551100000000    -0.379437   
O48      O      0.032230000000     0.932000000000     0.551140000000    -0.379047   
O49      O      0.274550000000     0.765390000000     0.907980000000    -0.452806   
O50      O      0.273650000000     0.761290000000     0.089390000000    -0.453352   
O51      O      0.316690000000     0.717070000000     0.989440000000    -0.432201   
O52      O      0.229480000000     0.809350000000     0.990560000000    -0.434745   
O53      O      0.172740000000     0.755750000000     0.010070000000    -0.445092   
O54      O      0.260110000000     0.666280000000     0.020950000000    -0.460091   
O55      O      0.210880000000     0.712570000000     0.090370000000    -0.457818   
O56      O      0.218050000000     0.709700000000     0.911950000000    -0.472422   
O57      O      0.272710000000     0.757710000000     0.409840000000    -0.457538   
O58      O      0.264870000000     0.765140000000     0.590170000000    -0.458762   
O59      O      0.315470000000     0.719740000000     0.510370000000    -0.438554   
O60      O      0.222350000000     0.805540000000     0.489750000000    -0.440417   
O61      O      0.167750000000     0.750310000000     0.511140000000    -0.440921   
O62      O      0.260750000000     0.664450000000     0.489640000000    -0.443068   
O63      O      0.216910000000     0.702920000000     0.589480000000    -0.464783   
O64      O      0.208850000000     0.711140000000     0.410970000000    -0.463659   
O65      O      0.547460000000     0.445320000000     0.952080000000    -0.378896   
O66      O      0.946740000000     0.033870000000     0.956340000000    -0.378763   
O67      O      0.544700000000     0.041990000000     0.953400000000    -0.41397    
O68      O      0.947340000000     0.436140000000     0.953880000000    -0.410938   
O69      O      0.943540000000     0.439450000000     0.057530000000    -0.410177   
O70      O      0.552710000000     0.034930000000     0.056580000000    -0.406017   
O71      O      0.952050000000     0.036070000000     0.059590000000    -0.377466   
O72      O      0.541430000000     0.437550000000     0.055110000000    -0.38268    
O73      O      0.541630000000     0.440520000000     0.448650000000    -0.378966   
O74      O      0.941180000000     0.029260000000     0.448570000000    -0.378801   
O75      O      0.540760000000     0.037100000000     0.448330000000    -0.413914   
O76      O      0.941840000000     0.432860000000     0.448060000000    -0.414372   
O77      O      0.934670000000     0.440220000000     0.550980000000    -0.412315   
O78      O      0.548140000000     0.029290000000     0.551250000000    -0.412119   
O79      O      0.950500000000     0.037630000000     0.551100000000    -0.379187   
O80      O      0.532230000000     0.432000000000     0.551140000000    -0.37948    
O81      O      0.774550000000     0.265390000000     0.907980000000    -0.452749   
O82      O      0.773650000000     0.261290000000     0.089390000000    -0.453358   
O83      O      0.816690000000     0.217070000000     0.989440000000    -0.432225   
O84      O      0.729480000000     0.309350000000     0.990560000000    -0.434713   
O85      O      0.672740000000     0.255750000000     0.010070000000    -0.445094   
O86      O      0.760110000000     0.166280000000     0.020950000000    -0.460003   
O87      O      0.710880000000     0.212570000000     0.090370000000    -0.457834   
O88      O      0.718050000000     0.209700000000     0.911950000000    -0.472473   
O89      O      0.772710000000     0.257710000000     0.409840000000    -0.457471   
O90      O      0.764870000000     0.265140000000     0.590170000000    -0.458752   
O91      O      0.815470000000     0.219740000000     0.510370000000    -0.43856    
O92      O      0.722350000000     0.305540000000     0.489750000000    -0.440394   
O93      O      0.667750000000     0.250310000000     0.511140000000    -0.440936   
O94      O      0.760750000000     0.164450000000     0.489640000000    -0.443053   
O95      O      0.716910000000     0.202920000000     0.589480000000    -0.464784   
O96      O      0.708850000000     0.211140000000     0.410970000000    -0.463722   
O97      O      0.547460000000     0.945320000000     0.952080000000    -0.37883    
O98      O      0.946740000000     0.533860000000     0.956340000000    -0.379052   
O99      O      0.544700000000     0.541990000000     0.953400000000    -0.414271   
O100     O      0.947340000000     0.936140000000     0.953880000000    -0.410889   
O101     O      0.943540000000     0.939450000000     0.057530000000    -0.410095   
O102     O      0.552710000000     0.534930000000     0.056580000000    -0.406283   
O103     O      0.952050000000     0.536070000000     0.059590000000    -0.377677   
O104     O      0.541430000000     0.937550000000     0.055110000000    -0.382559   
O105     O      0.541630000000     0.940520000000     0.448650000000    -0.378956   
O106     O      0.941180000000     0.529260000000     0.448570000000    -0.379087   
O107     O      0.540770000000     0.537100000000     0.448330000000    -0.414207   
O108     O      0.941840000000     0.932860000000     0.448060000000    -0.414302   
O109     O      0.934670000000     0.940230000000     0.550980000000    -0.412232   
O110     O      0.548140000000     0.529290000000     0.551250000000    -0.412391   
O111     O      0.950500000000     0.537630000000     0.551100000000    -0.37942    
O112     O      0.532230000000     0.932000000000     0.551140000000    -0.379419   
O113     O      0.774550000000     0.765390000000     0.907980000000    -0.452807   
O114     O      0.773650000000     0.761290000000     0.089390000000    -0.453361   
O115     O      0.816690000000     0.717070000000     0.989440000000    -0.432176   
O116     O      0.729480000000     0.809350000000     0.990560000000    -0.434728   
O117     O      0.672740000000     0.755750000000     0.010070000000    -0.445093   
O118     O      0.760100000000     0.666280000000     0.020950000000    -0.459953   
O119     O      0.710880000000     0.712570000000     0.090370000000    -0.457827   
O120     O      0.718050000000     0.709700000000     0.911950000000    -0.472431   
O121     O      0.772710000000     0.757710000000     0.409840000000    -0.457476   
O122     O      0.764870000000     0.765140000000     0.590170000000    -0.458753   
O123     O      0.815470000000     0.719740000000     0.510370000000    -0.438556   
O124     O      0.722340000000     0.805540000000     0.489750000000    -0.440464   
O125     O      0.667750000000     0.750310000000     0.511140000000    -0.440982   
O126     O      0.760750000000     0.664450000000     0.489640000000    -0.443164   
O127     O      0.716910000000     0.702920000000     0.589480000000    -0.464789   
O128     O      0.708850000000     0.711140000000     0.410970000000    -0.463726   
S1       S      0.165300000000     0.165280000000     0.688360000000    -0.0266827  
S2       S      0.166800000000     0.163520000000     0.312410000000    -0.0252636  
S3       S      0.105150000000     0.280580000000     0.604800000000    -0.0347393  
S4       S      0.340760000000     0.433100000000     0.590510000000    -0.0304543  
S5       S      0.378150000000     0.189580000000     0.604110000000    -0.0323285  
S6       S      0.144600000000     0.033160000000     0.583120000000    -0.0306148  
S7       S      0.115410000000     0.288120000000     0.108370000000    -0.0264488  
S8       S      0.353940000000     0.424300000000     0.108360000000    -0.0370433  
S9       S      0.377690000000     0.058310000000     0.133140000000    -0.0298848  
S10      S      0.234350000000     0.114450000000     0.038060000000     0.0796076  
S11      S      0.165300000000     0.665280000000     0.688360000000    -0.0267235  
S12      S      0.166800000000     0.663520000000     0.312410000000    -0.0252969  
S13      S      0.105150000000     0.780580000000     0.604800000000    -0.0347575  
S14      S      0.340760000000     0.933100000000     0.590510000000    -0.030635   
S15      S      0.378150000000     0.689580000000     0.604110000000    -0.0323537  
S16      S      0.144600000000     0.533160000000     0.583120000000    -0.0308433  
S17      S      0.115410000000     0.788120000000     0.108370000000    -0.0264763  
S18      S      0.353940000000     0.924300000000     0.108360000000    -0.0372464  
S19      S      0.377690000000     0.558310000000     0.133140000000    -0.0300134  
S20      S      0.234350000000     0.614450000000     0.038060000000     0.0795854  
S21      S      0.665300000000     0.165280000000     0.688360000000    -0.0267251  
S22      S      0.666800000000     0.163520000000     0.312410000000    -0.0253358  
S23      S      0.605150000000     0.280580000000     0.604800000000    -0.0348178  
S24      S      0.840760000000     0.433100000000     0.590510000000    -0.0304557  
S25      S      0.878150000000     0.189580000000     0.604110000000    -0.0324019  
S26      S      0.644600000000     0.033160000000     0.583120000000    -0.0306411  
S27      S      0.615400000000     0.288120000000     0.108370000000    -0.0265561  
S28      S      0.853940000000     0.424300000000     0.108360000000    -0.0370482  
S29      S      0.877700000000     0.058310000000     0.133140000000    -0.0299353  
S30      S      0.734350000000     0.114450000000     0.038060000000     0.0795951  
S31      S      0.665300000000     0.665280000000     0.688360000000    -0.0267625  
S32      S      0.666800000000     0.663520000000     0.312410000000    -0.0253614  
S33      S      0.605150000000     0.780580000000     0.604800000000    -0.0348494  
S34      S      0.840760000000     0.933100000000     0.590510000000    -0.0306377  
S35      S      0.878150000000     0.689580000000     0.604110000000    -0.0324237  
S36      S      0.644600000000     0.533160000000     0.583120000000    -0.0308682  
S37      S      0.615410000000     0.788120000000     0.108370000000    -0.0265652  
S38      S      0.853940000000     0.924300000000     0.108360000000    -0.0372549  
S39      S      0.877690000000     0.558310000000     0.133140000000    -0.0301061  
S40      S      0.734350000000     0.614450000000     0.038060000000     0.0795815  


