data_structure

_audit_creation_method RASPA-1.0
_audit_creation_date 2023-5-23
_audit_author_name 'Poobodin Mano'

_cell_length_a    29.35
_cell_length_b    29.2813
_cell_length_c    36.3203
_cell_angle_alpha 89.9891
_cell_angle_beta  89.9996
_cell_angle_gamma 89.9949
_cell_volume      31213.9

_symmetry_cell_setting          triclinic
_symmetry_space_group_name_Hall 'P 1'
_symmetry_space_group_name_H-M  'P 1'
_symmetry_Int_Tables_number     1

_symmetry_equiv_pos_as_xyz 'x,y,z'

loop_
_atom_site_label
_atom_site_type_symbol
_atom_site_fract_x
_atom_site_fract_y
_atom_site_fract_z
_atom_site_charge
C1       C      0.083690000000     0.083420000000     0.055320000000     0.481194   
C2       C      0.961510000000     0.962690000000     0.075450000000     0.47295    
C3       C      0.080960000000     0.962580000000     0.075400000000     0.472177   
C4       C      0.958920000000     0.083940000000     0.056130000000     0.479055   
C5       C      0.081510000000     0.084590000000     0.304210000000     0.469265   
C6       C      0.959750000000     0.962480000000     0.323650000000     0.476885   
C7       C      0.084370000000     0.963130000000     0.323700000000     0.477978   
C8       C      0.961630000000     0.083870000000     0.304350000000     0.471398   
C9       C      0.332380000000     0.213450000000     0.990560000000     0.470481   
C10      C      0.210580000000     0.335400000000     0.010470000000     0.475456   
C11      C      0.211880000000     0.210650000000     0.011260000000     0.479803   
C12      C      0.332030000000     0.333270000000     0.990650000000     0.47249    
C13      C      0.332270000000     0.209660000000     0.242340000000     0.479005   
C14      C      0.212090000000     0.332290000000     0.262800000000     0.473645   
C15      C      0.211070000000     0.212610000000     0.262340000000     0.46904    
C16      C      0.332840000000     0.334530000000     0.242340000000     0.476861   
C17      C      0.332140000000     0.835140000000     0.132780000000     0.473703   
C18      C      0.212060000000     0.711620000000     0.115310000000     0.47469    
C19      C      0.210840000000     0.834670000000     0.116090000000     0.470669   
C20      C      0.332610000000     0.711920000000     0.132770000000     0.471938   
C21      C      0.332610000000     0.833720000000     0.382780000000     0.471475   
C22      C      0.210940000000     0.710810000000     0.366080000000     0.470257   
C23      C      0.212180000000     0.834080000000     0.365320000000     0.474663   
C24      C      0.332100000000     0.710350000000     0.382780000000     0.473605   
C25      C      0.460650000000     0.962850000000     0.424880000000     0.475007   
C26      C      0.582100000000     0.084310000000     0.947320000000     0.475438   
C27      C      0.460780000000     0.084900000000     0.947390000000     0.473181   
C28      C      0.581830000000     0.962650000000     0.424910000000     0.473714   
C29      C      0.461320000000     0.962480000000     0.175080000000     0.479851   
C30      C      0.582290000000     0.083810000000     0.197170000000     0.479128   
C31      C      0.461210000000     0.083410000000     0.197730000000     0.482038   
C32      C      0.582250000000     0.962630000000     0.175150000000     0.480239   
C33      C      0.830880000000     0.711610000000     0.115460000000     0.476042   
C34      C      0.711010000000     0.835110000000     0.132740000000     0.475238   
C35      C      0.710530000000     0.711910000000     0.132770000000     0.473566   
C36      C      0.832090000000     0.834630000000     0.116320000000     0.471947   
C37      C      0.832230000000     0.710730000000     0.366170000000     0.468738   
C38      C      0.710460000000     0.833830000000     0.382900000000     0.469798   
C39      C      0.710840000000     0.710370000000     0.382890000000     0.471736   
C40      C      0.831170000000     0.834000000000     0.365330000000     0.472552   
C41      C      0.832270000000     0.333870000000     0.012490000000     0.475033   
C42      C      0.710430000000     0.212630000000     0.990490000000     0.476363   
C43      C      0.710730000000     0.334020000000     0.990540000000     0.478561   
C44      C      0.831400000000     0.212550000000     0.013050000000     0.480003   
C45      C      0.831310000000     0.333040000000     0.262970000000     0.479727   
C46      C      0.710610000000     0.211550000000     0.240560000000     0.478441   
C47      C      0.710330000000     0.332970000000     0.240500000000     0.47645    
C48      C      0.832170000000     0.211730000000     0.262500000000     0.47531    
C49      C      0.581770000000     0.582580000000     0.425100000000     0.477733   
C50      C      0.460860000000     0.460770000000     0.947180000000     0.477052   
C51      C      0.582030000000     0.461360000000     0.947110000000     0.479102   
C52      C      0.460660000000     0.582340000000     0.425100000000     0.479292   
C53      C      0.582220000000     0.583320000000     0.174930000000     0.476792   
C54      C      0.461190000000     0.461980000000     0.197960000000     0.478376   
C55      C      0.582400000000     0.461710000000     0.197370000000     0.475976   
C56      C      0.461250000000     0.583410000000     0.174840000000     0.476272   
C57      C      0.961330000000     0.462130000000     0.054290000000     0.472071   
C58      C      0.083580000000     0.583310000000     0.073660000000     0.479007   
C59      C      0.959170000000     0.583400000000     0.073600000000     0.479949   
C60      C      0.081090000000     0.462340000000     0.053610000000     0.47463    
C61      C      0.959300000000     0.461210000000     0.305950000000     0.478425   
C62      C      0.081730000000     0.582190000000     0.325350000000     0.471638   
C63      C      0.961950000000     0.582390000000     0.325460000000     0.47044    
C64      C      0.083910000000     0.460540000000     0.305900000000     0.476663   
C65      C      0.021690000000     0.558970000000     0.167130000000     0.0282304  
C66      C      0.021440000000     0.478760000000     0.174460000000     0.0331573  
C67      C      0.021470000000     0.485040000000     0.212490000000     0.028282   
C68      C      0.021780000000     0.565240000000     0.205150000000     0.0332286  
C69      C      0.981000000000     0.529730000000     0.957800000000     0.0301659  
C70      C      0.061500000000     0.530540000000     0.957960000000     0.0299077  
C71      C      0.061780000000     0.514820000000     0.421720000000     0.0295213  
C72      C      0.981270000000     0.514060000000     0.421540000000     0.030016   
C73      C      0.481340000000     0.514970000000     0.329230000000     0.0294197  
C74      C      0.561750000000     0.514410000000     0.329410000000     0.0295471  
C75      C      0.561980000000     0.530070000000     0.293050000000     0.0293697  
C76      C      0.481580000000     0.530680000000     0.292890000000     0.0295984  
C77      C      0.561500000000     0.529500000000     0.042930000000     0.0295678  
C78      C      0.481080000000     0.529120000000     0.042980000000     0.0296796  
C79      C      0.481190000000     0.514060000000     0.079500000000     0.0294019  
C80      C      0.561610000000     0.514410000000     0.079440000000     0.0292108  
C81      C      0.872800000000     0.371270000000     0.310090000000     0.0326866  
C82      C      0.886690000000     0.389440000000     0.247820000000     0.0325226  
C83      C      0.918000000000     0.422500000000     0.259070000000     0.0323404  
C84      C      0.905500000000     0.403090000000     0.321290000000     0.0321997  
C85      C      0.669610000000     0.372290000000     0.193440000000     0.0325141  
C86      C      0.653260000000     0.387990000000     0.255710000000     0.0320735  
C87      C      0.621680000000     0.420970000000     0.244470000000     0.0324027  
C88      C      0.636890000000     0.404120000000     0.182200000000     0.0319991  
C89      C      0.778350000000     0.312930000000     0.394740000000     0.0294183  
C90      C      0.779270000000     0.232340000000     0.395010000000     0.0296336  
C91      C      0.764020000000     0.231980000000     0.358550000000     0.0292478  
C92      C      0.763020000000     0.312580000000     0.358310000000     0.0294475  
C93      C      0.762990000000     0.233010000000     0.108300000000     0.0294027  
C94      C      0.764020000000     0.313610000000     0.108540000000     0.0293847  
C95      C      0.779200000000     0.313230000000     0.145010000000     0.0295214  
C96      C      0.778260000000     0.232630000000     0.144740000000     0.0294012  
C97      C      0.889670000000     0.388260000000     0.996810000000     0.0320901  
C98      C      0.873680000000     0.373130000000     0.059240000000     0.0323179  
C99      C      0.906860000000     0.404720000000     0.070130000000     0.0321638  
C100     C      0.921610000000     0.421030000000     0.007700000000     0.0323515  
C101     C      0.670120000000     0.373020000000     0.943300000000     0.0325951  
C102     C      0.653320000000     0.388550000000     0.005560000000     0.0322251  
C103     C      0.621440000000     0.421070000000     0.994250000000     0.0327328  
C104     C      0.637140000000     0.404470000000     0.931990000000     0.032373   
C105     C      0.872520000000     0.669420000000     0.319960000000     0.0316634  
C106     C      0.890920000000     0.657730000000     0.382420000000     0.0321508  
C107     C      0.923070000000     0.624890000000     0.371820000000     0.0320648  
C108     C      0.906050000000     0.638130000000     0.309300000000     0.0322656  
C109     C      0.652200000000     0.657190000000     0.367260000000     0.0321618  
C110     C      0.671490000000     0.669110000000     0.429550000000     0.0317177  
C111     C      0.638180000000     0.637900000000     0.440600000000     0.0324471  
C112     C      0.620180000000     0.624520000000     0.378250000000     0.0324851  
C113     C      0.734350000000     0.773180000000     0.226350000000     0.0288182  
C114     C      0.814330000000     0.771880000000     0.234350000000     0.0335746  
C115     C      0.807640000000     0.771360000000     0.272240000000     0.0283959  
C116     C      0.727650000000     0.772640000000     0.264250000000     0.0331965  
C117     C      0.807760000000     0.774190000000     0.022230000000     0.0286941  
C118     C      0.727780000000     0.772960000000     0.014210000000     0.0334334  
C119     C      0.734500000000     0.772390000000     0.976320000000     0.0285926  
C120     C      0.814480000000     0.773640000000     0.984330000000     0.0333188  
C121     C      0.870820000000     0.671110000000     0.068840000000     0.0324806  
C122     C      0.887730000000     0.656870000000     0.131300000000     0.0326521  
C123     C      0.919210000000     0.623770000000     0.120370000000     0.0326886  
C124     C      0.903830000000     0.639610000000     0.057900000000     0.032598   
C125     C      0.671240000000     0.670510000000     0.179300000000     0.032072   
C126     C      0.652100000000     0.658470000000     0.117000000000     0.0323848  
C127     C      0.620350000000     0.625470000000     0.127980000000     0.0323692  
C128     C      0.638230000000     0.639010000000     0.190330000000     0.0323586  
C129     C      0.620470000000     0.920890000000     0.128180000000     0.0327733  
C130     C      0.638700000000     0.907480000000     0.190520000000     0.0326254  
C131     C      0.671930000000     0.876330000000     0.179420000000     0.0321147  
C132     C      0.652440000000     0.888260000000     0.117140000000     0.0325187  
C133     C      0.636990000000     0.141100000000     0.182040000000     0.0322089  
C134     C      0.621660000000     0.124140000000     0.244300000000     0.0327423  
C135     C      0.653420000000     0.156790000000     0.255600000000     0.0321752  
C136     C      0.669880000000     0.172660000000     0.193340000000     0.032524   
C137     C      0.481360000000     0.030960000000     0.329300000000     0.0291486  
C138     C      0.561770000000     0.031500000000     0.329490000000     0.0292119  
C139     C      0.562010000000     0.015900000000     0.293120000000     0.0294612  
C140     C      0.481590000000     0.015310000000     0.292960000000     0.0296901  
C141     C      0.561500000000     0.015660000000     0.042870000000     0.0291493  
C142     C      0.481090000000     0.016010000000     0.042930000000     0.0293667  
C143     C      0.481190000000     0.031150000000     0.079430000000     0.0295191  
C144     C      0.561610000000     0.030830000000     0.079360000000     0.0294037  
C145     C      0.637870000000     0.906820000000     0.440420000000     0.0321863  
C146     C      0.620150000000     0.920370000000     0.378070000000     0.0321277  
C147     C      0.651970000000     0.887350000000     0.367130000000     0.0322021  
C148     C      0.670970000000     0.875290000000     0.429420000000     0.0317716  
C149     C      0.621410000000     0.125000000000     0.994430000000     0.0323867  
C150     C      0.636970000000     0.141540000000     0.932160000000     0.0320122  
C151     C      0.669780000000     0.173270000000     0.943410000000     0.0324701  
C152     C      0.653120000000     0.157840000000     0.005680000000     0.0320667  
C153     C      0.120350000000     0.624840000000     0.371710000000     0.032207   
C154     C      0.137510000000     0.637970000000     0.309190000000     0.0323456  
C155     C      0.170900000000     0.669360000000     0.319860000000     0.0318053  
C156     C      0.152360000000     0.657770000000     0.382320000000     0.0322186  
C157     C      0.371140000000     0.668950000000     0.429470000000     0.0318914  
C158     C      0.390620000000     0.657110000000     0.367190000000     0.0323359  
C159     C      0.422510000000     0.624360000000     0.378220000000     0.0327556  
C160     C      0.404310000000     0.637660000000     0.440550000000     0.0326282  
C161     C      0.371890000000     0.875220000000     0.429320000000     0.0320402  
C162     C      0.390900000000     0.887390000000     0.367030000000     0.0323087  
C163     C      0.422550000000     0.920510000000     0.378000000000     0.0323697  
C164     C      0.404820000000     0.906880000000     0.440350000000     0.0322254  
C165     C      0.228680000000     0.771890000000     0.234270000000     0.0335468  
C166     C      0.308650000000     0.773230000000     0.226240000000     0.0286856  
C167     C      0.315370000000     0.772660000000     0.264130000000     0.0334058  
C168     C      0.235400000000     0.771340000000     0.272160000000     0.028561   
C169     C      0.228660000000     0.773700000000     0.984250000000     0.0334835  
C170     C      0.308640000000     0.772290000000     0.976240000000     0.0287288  
C171     C      0.315350000000     0.772890000000     0.014140000000     0.0333618  
C172     C      0.235370000000     0.774280000000     0.022150000000     0.0286196  
C173     C      0.123860000000     0.623620000000     0.120290000000     0.0327208  
C174     C      0.138680000000     0.639810000000     0.057810000000     0.0325512  
C175     C      0.171760000000     0.671320000000     0.068700000000     0.0323475  
C176     C      0.155360000000     0.656730000000     0.131180000000     0.0325812  
C177     C      0.372110000000     0.670620000000     0.179320000000     0.0320097  
C178     C      0.391160000000     0.658570000000     0.117020000000     0.0323081  
C179     C      0.423000000000     0.625640000000     0.127990000000     0.0324995  
C180     C      0.405230000000     0.639170000000     0.190340000000     0.0323729  
C181     C      0.390940000000     0.888070000000     0.117200000000     0.0323987  
C182     C      0.371420000000     0.876270000000     0.179470000000     0.0320734  
C183     C      0.404800000000     0.907330000000     0.190560000000     0.0325846  
C184     C      0.423030000000     0.920600000000     0.128220000000     0.0328916  
C185     C      0.155640000000     0.387770000000     0.247670000000     0.0325993  
C186     C      0.170850000000     0.370860000000     0.309940000000     0.0324541  
C187     C      0.138100000000     0.402670000000     0.321180000000     0.0322895  
C188     C      0.124310000000     0.420880000000     0.258930000000     0.0323551  
C189     C      0.391760000000     0.387840000000     0.256990000000     0.0321178  
C190     C      0.371190000000     0.375590000000     0.195010000000     0.032056   
C191     C      0.404330000000     0.406680000000     0.183380000000     0.0324745  
C192     C      0.423640000000     0.420330000000     0.245420000000     0.0326828  
C193     C      0.423600000000     0.124700000000     0.245210000000     0.0329389  
C194     C      0.403780000000     0.138030000000     0.183180000000     0.032589   
C195     C      0.370380000000     0.168720000000     0.194890000000     0.032167   
C196     C      0.391440000000     0.156780000000     0.256830000000     0.0322644  
C197     C      0.279250000000     0.231880000000     0.358590000000     0.0293299  
C198     C      0.280350000000     0.312530000000     0.358380000000     0.0294915  
C199     C      0.264520000000     0.312900000000     0.394600000000     0.0293103  
C200     C      0.263530000000     0.232250000000     0.394860000000     0.0297231  
C201     C      0.315270000000     0.272850000000     0.111550000000     0.0331977  
C202     C      0.235360000000     0.274130000000     0.103720000000     0.0278663  
C203     C      0.228680000000     0.273630000000     0.141710000000     0.0332577  
C204     C      0.308590000000     0.272330000000     0.149550000000     0.0279879  
C205     C      0.171440000000     0.376320000000     0.057510000000     0.0319792  
C206     C      0.151340000000     0.388100000000     0.995380000000     0.0321858  
C207     C      0.119090000000     0.420400000000     0.006620000000     0.0324918  
C208     C      0.137850000000     0.407140000000     0.068830000000     0.0325155  
C209     C      0.390280000000     0.387060000000     0.005640000000     0.0323624  
C210     C      0.372530000000     0.372520000000     0.943430000000     0.0324609  
C211     C      0.405540000000     0.403980000000     0.932090000000     0.0322758  
C212     C      0.422140000000     0.419680000000     0.994330000000     0.0327183  
C213     C      0.390480000000     0.159360000000     0.005750000000     0.0323372  
C214     C      0.372940000000     0.173850000000     0.443530000000     0.0324016  
C215     C      0.405760000000     0.142080000000     0.432260000000     0.0319805  
C216     C      0.422150000000     0.126390000000     0.994510000000     0.0322505  
C217     C      0.906830000000     0.140960000000     0.320180000000     0.0321174  
C218     C      0.921820000000     0.124870000000     0.257740000000     0.0322832  
C219     C      0.889760000000     0.157520000000     0.246840000000     0.032078   
C220     C      0.873570000000     0.172450000000     0.309270000000     0.0324403  
C221     C      0.904470000000     0.906080000000     0.307840000000     0.0325602  
C222     C      0.919680000000     0.921850000000     0.370300000000     0.0324811  
C223     C      0.888130000000     0.888720000000     0.381190000000     0.0324427  
C224     C      0.871360000000     0.874540000000     0.318730000000     0.0320447  
C225     C      0.124670000000     0.922800000000     0.370340000000     0.0324279  
C226     C      0.139210000000     0.906370000000     0.307860000000     0.0325028  
C227     C      0.172060000000     0.874610000000     0.318740000000     0.0323825  
C228     C      0.155930000000     0.889430000000     0.381220000000     0.0327121  
C229     C      0.136420000000     0.141660000000     0.320010000000     0.0321971  
C230     C      0.120650000000     0.126360000000     0.257600000000     0.0322028  
C231     C      0.152690000000     0.159120000000     0.246690000000     0.0321949  
C232     C      0.169700000000     0.173170000000     0.309090000000     0.0321025  
C233     C      0.062060000000     0.016200000000     0.207970000000     0.0296035  
C234     C      0.981540000000     0.015920000000     0.208020000000     0.0300909  
C235     C      0.981450000000     0.031060000000     0.171620000000     0.0298343  
C236     C      0.061970000000     0.031300000000     0.171560000000     0.0297532  
C237     C      0.020050000000     0.060080000000     0.962650000000     0.0284773  
C238     C      0.021700000000     0.979950000000     0.954950000000     0.0338401  
C239     C      0.022130000000     0.986540000000     0.416980000000     0.028687   
C240     C      0.020540000000     0.066680000000     0.424670000000     0.0329084  
C241     C      0.905670000000     0.142610000000     0.071410000000     0.0321672  
C242     C      0.917440000000     0.122490000000     0.009250000000     0.0322413  
C243     C      0.886340000000     0.155710000000     0.997960000000     0.0324456  
C244     C      0.873100000000     0.174560000000     0.060190000000     0.0326298  
C245     C      0.922810000000     0.920360000000     0.121920000000     0.0323191  
C246     C      0.905670000000     0.907070000000     0.059400000000     0.0325213  
C247     C      0.872230000000     0.875830000000     0.070100000000     0.0320978  
C248     C      0.890710000000     0.887560000000     0.132560000000     0.0324782  
C249     C      0.119730000000     0.920050000000     0.121730000000     0.0323475  
C250     C      0.136910000000     0.907000000000     0.059190000000     0.0323907  
C251     C      0.170520000000     0.875840000000     0.069860000000     0.0319644  
C252     C      0.151970000000     0.887340000000     0.132330000000     0.032382   
C253     C      0.139710000000     0.139410000000     0.070210000000     0.0325325  
C254     C      0.123360000000     0.122990000000     0.008010000000     0.0328212  
C255     C      0.154900000000     0.155680000000     0.996510000000     0.0325025  
C256     C      0.172800000000     0.170570000000     0.058680000000     0.0325504  
C257     C      0.083690000000     0.083420000000     0.555320000000     0.481187   
C258     C      0.961510000000     0.962700000000     0.575440000000     0.472967   
C259     C      0.080960000000     0.962580000000     0.575400000000     0.472168   
C260     C      0.958910000000     0.083940000000     0.556130000000     0.478986   
C261     C      0.081510000000     0.084590000000     0.804220000000     0.469299   
C262     C      0.959750000000     0.962480000000     0.823650000000     0.476887   
C263     C      0.084370000000     0.963130000000     0.823690000000     0.477745   
C264     C      0.961630000000     0.083870000000     0.804350000000     0.471641   
C265     C      0.332380000000     0.213450000000     0.490570000000     0.470446   
C266     C      0.210580000000     0.335400000000     0.510470000000     0.475745   
C267     C      0.211890000000     0.210650000000     0.511270000000     0.480045   
C268     C      0.332030000000     0.333280000000     0.490660000000     0.472406   
C269     C      0.332280000000     0.209660000000     0.742340000000     0.478741   
C270     C      0.212100000000     0.332290000000     0.762810000000     0.473753   
C271     C      0.211080000000     0.212610000000     0.762340000000     0.469205   
C272     C      0.332850000000     0.334530000000     0.742350000000     0.476818   
C273     C      0.332140000000     0.835140000000     0.632780000000     0.473719   
C274     C      0.212060000000     0.711620000000     0.615310000000     0.474781   
C275     C      0.210840000000     0.834670000000     0.616090000000     0.470694   
C276     C      0.332610000000     0.711920000000     0.632770000000     0.47187    
C277     C      0.332610000000     0.833720000000     0.882780000000     0.471449   
C278     C      0.210940000000     0.710800000000     0.866080000000     0.470138   
C279     C      0.212180000000     0.834080000000     0.865320000000     0.474654   
C280     C      0.332100000000     0.710350000000     0.882780000000     0.473647   
C281     C      0.460650000000     0.962850000000     0.924880000000     0.475212   
C282     C      0.582100000000     0.084310000000     0.447330000000     0.475298   
C283     C      0.460780000000     0.084890000000     0.447400000000     0.473344   
C284     C      0.581830000000     0.962650000000     0.924910000000     0.473675   
C285     C      0.461330000000     0.962470000000     0.675080000000     0.479791   
C286     C      0.582290000000     0.083800000000     0.697180000000     0.479328   
C287     C      0.461210000000     0.083410000000     0.697730000000     0.481835   
C288     C      0.582250000000     0.962630000000     0.675150000000     0.480202   
C289     C      0.830880000000     0.711610000000     0.615460000000     0.476041   
C290     C      0.711010000000     0.835110000000     0.632740000000     0.475224   
C291     C      0.710530000000     0.711910000000     0.632770000000     0.473173   
C292     C      0.832090000000     0.834630000000     0.616320000000     0.472001   
C293     C      0.832230000000     0.710730000000     0.866170000000     0.468687   
C294     C      0.710460000000     0.833830000000     0.882910000000     0.469785   
C295     C      0.710840000000     0.710370000000     0.882890000000     0.471843   
C296     C      0.831170000000     0.834000000000     0.865330000000     0.472542   
C297     C      0.832260000000     0.333870000000     0.512490000000     0.47508    
C298     C      0.710430000000     0.212630000000     0.490490000000     0.476472   
C299     C      0.710730000000     0.334020000000     0.490550000000     0.478618   
C300     C      0.831400000000     0.212550000000     0.513060000000     0.479921   
C301     C      0.831300000000     0.333040000000     0.762980000000     0.479756   
C302     C      0.710610000000     0.211550000000     0.740560000000     0.478473   
C303     C      0.710330000000     0.332970000000     0.740510000000     0.476523   
C304     C      0.832170000000     0.211730000000     0.762510000000     0.475303   
C305     C      0.581770000000     0.582580000000     0.925100000000     0.477772   
C306     C      0.460860000000     0.460780000000     0.447190000000     0.477354   
C307     C      0.582030000000     0.461360000000     0.447110000000     0.479317   
C308     C      0.460660000000     0.582340000000     0.925100000000     0.479033   
C309     C      0.582220000000     0.583320000000     0.674930000000     0.476786   
C310     C      0.461190000000     0.461980000000     0.697960000000     0.478138   
C311     C      0.582400000000     0.461710000000     0.697370000000     0.475976   
C312     C      0.461250000000     0.583420000000     0.674840000000     0.476299   
C313     C      0.961330000000     0.462120000000     0.554290000000     0.472002   
C314     C      0.083580000000     0.583310000000     0.573660000000     0.479006   
C315     C      0.959170000000     0.583400000000     0.573610000000     0.479946   
C316     C      0.081090000000     0.462340000000     0.553610000000     0.474379   
C317     C      0.959300000000     0.461210000000     0.805950000000     0.478333   
C318     C      0.081730000000     0.582190000000     0.825350000000     0.471689   
C319     C      0.961950000000     0.582390000000     0.825460000000     0.470436   
C320     C      0.083910000000     0.460540000000     0.805900000000     0.476731   
C321     C      0.021690000000     0.558960000000     0.667130000000     0.0283172  
C322     C      0.021440000000     0.478760000000     0.674460000000     0.0331631  
C323     C      0.021470000000     0.485040000000     0.712490000000     0.0282821  
C324     C      0.021780000000     0.565240000000     0.705150000000     0.0331821  
C325     C      0.981000000000     0.529730000000     0.457790000000     0.0302102  
C326     C      0.061500000000     0.530540000000     0.457950000000     0.0299145  
C327     C      0.061780000000     0.514820000000     0.921730000000     0.029528   
C328     C      0.981280000000     0.514060000000     0.921540000000     0.0301121  
C329     C      0.481340000000     0.514970000000     0.829230000000     0.0294981  
C330     C      0.561750000000     0.514410000000     0.829410000000     0.0296039  
C331     C      0.561990000000     0.530070000000     0.793050000000     0.0292792  
C332     C      0.481570000000     0.530680000000     0.792890000000     0.0295065  
C333     C      0.561500000000     0.529500000000     0.542930000000     0.0295717  
C334     C      0.481080000000     0.529130000000     0.542980000000     0.0296982  
C335     C      0.481190000000     0.514060000000     0.579500000000     0.0293958  
C336     C      0.561610000000     0.514410000000     0.579440000000     0.0292245  
C337     C      0.872800000000     0.371280000000     0.810090000000     0.0327269  
C338     C      0.886690000000     0.389440000000     0.747830000000     0.0325924  
C339     C      0.918000000000     0.422500000000     0.759070000000     0.0322058  
C340     C      0.905500000000     0.403090000000     0.821290000000     0.032257   
C341     C      0.669610000000     0.372290000000     0.693440000000     0.0324412  
C342     C      0.653260000000     0.387990000000     0.755720000000     0.0320557  
C343     C      0.621680000000     0.420970000000     0.744470000000     0.0324462  
C344     C      0.636890000000     0.404120000000     0.682200000000     0.0320163  
C345     C      0.778360000000     0.312940000000     0.894740000000     0.029308   
C346     C      0.779280000000     0.232340000000     0.895010000000     0.029609   
C347     C      0.764020000000     0.231980000000     0.858550000000     0.0292689  
C348     C      0.763020000000     0.312580000000     0.858320000000     0.0295046  
C349     C      0.762990000000     0.233010000000     0.608300000000     0.0293662  
C350     C      0.764010000000     0.313610000000     0.608550000000     0.0294147  
C351     C      0.779200000000     0.313230000000     0.645020000000     0.0294524  
C352     C      0.778260000000     0.232630000000     0.644740000000     0.0294905  
C353     C      0.889670000000     0.388260000000     0.496810000000     0.0319911  
C354     C      0.873680000000     0.373130000000     0.559240000000     0.0324427  
C355     C      0.906860000000     0.404720000000     0.570140000000     0.0320718  
C356     C      0.921610000000     0.421030000000     0.507700000000     0.0323958  
C357     C      0.670120000000     0.373020000000     0.443310000000     0.0326529  
C358     C      0.653320000000     0.388550000000     0.505560000000     0.0323186  
C359     C      0.621430000000     0.421070000000     0.494260000000     0.0326949  
C360     C      0.637140000000     0.404470000000     0.431990000000     0.0322706  
C361     C      0.872530000000     0.669430000000     0.819960000000     0.0316476  
C362     C      0.890920000000     0.657730000000     0.882420000000     0.0321747  
C363     C      0.923080000000     0.624890000000     0.871820000000     0.0320568  
C364     C      0.906060000000     0.638130000000     0.809300000000     0.0322991  
C365     C      0.652200000000     0.657190000000     0.867260000000     0.0321702  
C366     C      0.671490000000     0.669110000000     0.929540000000     0.0318163  
C367     C      0.638180000000     0.637900000000     0.940600000000     0.0324036  
C368     C      0.620180000000     0.624520000000     0.878250000000     0.0324751  
C369     C      0.734350000000     0.773180000000     0.726350000000     0.028799   
C370     C      0.814330000000     0.771880000000     0.734350000000     0.0335592  
C371     C      0.807640000000     0.771360000000     0.772240000000     0.0284039  
C372     C      0.727660000000     0.772640000000     0.764250000000     0.0332652  
C373     C      0.807760000000     0.774190000000     0.522230000000     0.0286879  
C374     C      0.727780000000     0.772960000000     0.514210000000     0.0334282  
C375     C      0.734500000000     0.772390000000     0.476320000000     0.0285924  
C376     C      0.814480000000     0.773640000000     0.484330000000     0.0333208  
C377     C      0.870820000000     0.671110000000     0.568840000000     0.0324656  
C378     C      0.887730000000     0.656870000000     0.631300000000     0.0326125  
C379     C      0.919220000000     0.623780000000     0.620360000000     0.0327673  
C380     C      0.903830000000     0.639610000000     0.557900000000     0.0326216  
C381     C      0.671240000000     0.670500000000     0.679300000000     0.0320383  
C382     C      0.652110000000     0.658460000000     0.617000000000     0.0323829  
C383     C      0.620360000000     0.625470000000     0.627980000000     0.0323687  
C384     C      0.638230000000     0.639010000000     0.690330000000     0.0323668  
C385     C      0.620480000000     0.920890000000     0.628180000000     0.0327703  
C386     C      0.638700000000     0.907480000000     0.690520000000     0.032632   
C387     C      0.671930000000     0.876330000000     0.679420000000     0.0320908  
C388     C      0.652440000000     0.888260000000     0.617140000000     0.0325124  
C389     C      0.636990000000     0.141100000000     0.682040000000     0.0321801  
C390     C      0.621660000000     0.124130000000     0.744310000000     0.0326638  
C391     C      0.653420000000     0.156790000000     0.755610000000     0.032179   
C392     C      0.669880000000     0.172660000000     0.693350000000     0.0326232  
C393     C      0.481360000000     0.030960000000     0.829300000000     0.0291032  
C394     C      0.561770000000     0.031500000000     0.829490000000     0.0291977  
C395     C      0.562010000000     0.015890000000     0.793120000000     0.0294854  
C396     C      0.481600000000     0.015300000000     0.792960000000     0.0297871  
C397     C      0.561500000000     0.015650000000     0.542870000000     0.0291584  
C398     C      0.481080000000     0.016000000000     0.542930000000     0.0293107  
C399     C      0.481190000000     0.031150000000     0.579430000000     0.0295471  
C400     C      0.561610000000     0.030830000000     0.579360000000     0.0294053  
C401     C      0.637870000000     0.906820000000     0.940420000000     0.0321175  
C402     C      0.620150000000     0.920370000000     0.878070000000     0.0321824  
C403     C      0.651970000000     0.887350000000     0.867130000000     0.0321966  
C404     C      0.670970000000     0.875290000000     0.929420000000     0.0317942  
C405     C      0.621410000000     0.125000000000     0.494430000000     0.0324498  
C406     C      0.636970000000     0.141540000000     0.432170000000     0.0320313  
C407     C      0.669780000000     0.173270000000     0.443420000000     0.0324564  
C408     C      0.653110000000     0.157840000000     0.505690000000     0.0320268  
C409     C      0.120350000000     0.624840000000     0.871710000000     0.0321802  
C410     C      0.137520000000     0.637970000000     0.809190000000     0.032315   
C411     C      0.170900000000     0.669360000000     0.819860000000     0.031816   
C412     C      0.152360000000     0.657770000000     0.882320000000     0.0322454  
C413     C      0.371140000000     0.668960000000     0.929460000000     0.0320347  
C414     C      0.390620000000     0.657110000000     0.867190000000     0.0322849  
C415     C      0.422510000000     0.624360000000     0.878220000000     0.0328177  
C416     C      0.404310000000     0.637660000000     0.940550000000     0.032503   
C417     C      0.371890000000     0.875220000000     0.929320000000     0.032028   
C418     C      0.390900000000     0.887390000000     0.867030000000     0.0323093  
C419     C      0.422550000000     0.920520000000     0.878000000000     0.0323823  
C420     C      0.404820000000     0.906880000000     0.940350000000     0.0322422  
C421     C      0.228680000000     0.771890000000     0.734270000000     0.0335398  
C422     C      0.308650000000     0.773230000000     0.726230000000     0.0286978  
C423     C      0.315370000000     0.772660000000     0.764130000000     0.0334077  
C424     C      0.235400000000     0.771340000000     0.772160000000     0.0285632  
C425     C      0.228660000000     0.773700000000     0.484250000000     0.0334733  
C426     C      0.308630000000     0.772290000000     0.476240000000     0.0288058  
C427     C      0.315350000000     0.772890000000     0.514140000000     0.03332    
C428     C      0.235370000000     0.774280000000     0.522140000000     0.0286221  
C429     C      0.123860000000     0.623620000000     0.620290000000     0.0327235  
C430     C      0.138680000000     0.639810000000     0.557810000000     0.032546   
C431     C      0.171760000000     0.671320000000     0.568700000000     0.0323582  
C432     C      0.155360000000     0.656730000000     0.631180000000     0.0325728  
C433     C      0.372110000000     0.670620000000     0.679320000000     0.0320024  
C434     C      0.391160000000     0.658570000000     0.617020000000     0.0322893  
C435     C      0.423000000000     0.625640000000     0.627990000000     0.0325193  
C436     C      0.405230000000     0.639170000000     0.690340000000     0.0323837  
C437     C      0.390940000000     0.888060000000     0.617200000000     0.0324978  
C438     C      0.371420000000     0.876270000000     0.679470000000     0.0319912  
C439     C      0.404800000000     0.907340000000     0.690560000000     0.032653   
C440     C      0.423030000000     0.920600000000     0.628220000000     0.0328451  
C441     C      0.155640000000     0.387770000000     0.747670000000     0.0325294  
C442     C      0.170850000000     0.370870000000     0.809950000000     0.0324572  
C443     C      0.138100000000     0.402670000000     0.821190000000     0.03223    
C444     C      0.124310000000     0.420880000000     0.758930000000     0.0323892  
C445     C      0.391760000000     0.387840000000     0.756990000000     0.0321718  
C446     C      0.371190000000     0.375600000000     0.695020000000     0.0322168  
C447     C      0.404330000000     0.406680000000     0.683380000000     0.0323128  
C448     C      0.423650000000     0.420340000000     0.745430000000     0.0326373  
C449     C      0.423600000000     0.124700000000     0.745210000000     0.0329102  
C450     C      0.403780000000     0.138030000000     0.683180000000     0.0325878  
C451     C      0.370380000000     0.168720000000     0.694890000000     0.0321133  
C452     C      0.391440000000     0.156780000000     0.756830000000     0.0323305  
C453     C      0.279250000000     0.231870000000     0.858600000000     0.0292984  
C454     C      0.280350000000     0.312540000000     0.858390000000     0.0294263  
C455     C      0.264510000000     0.312900000000     0.894600000000     0.0293366  
C456     C      0.263520000000     0.232240000000     0.894860000000     0.0296734  
C457     C      0.315270000000     0.272850000000     0.611560000000     0.0331866  
C458     C      0.235360000000     0.274130000000     0.603730000000     0.0278779  
C459     C      0.228680000000     0.273630000000     0.641720000000     0.0332604  
C460     C      0.308590000000     0.272330000000     0.649560000000     0.0279929  
C461     C      0.171450000000     0.376310000000     0.557510000000     0.0320723  
C462     C      0.151340000000     0.388100000000     0.495380000000     0.0321685  
C463     C      0.119100000000     0.420400000000     0.506620000000     0.0324844  
C464     C      0.137860000000     0.407130000000     0.568840000000     0.0323588  
C465     C      0.390280000000     0.387060000000     0.505650000000     0.0324172  
C466     C      0.372530000000     0.372520000000     0.443440000000     0.0324743  
C467     C      0.405540000000     0.403980000000     0.432090000000     0.0322788  
C468     C      0.422150000000     0.419680000000     0.494340000000     0.0326121  
C469     C      0.390490000000     0.159360000000     0.505760000000     0.0321931  
C470     C      0.372940000000     0.173850000000     0.943520000000     0.0323432  
C471     C      0.405760000000     0.142080000000     0.932250000000     0.0320007  
C472     C      0.422160000000     0.126390000000     0.494510000000     0.0323601  
C473     C      0.906830000000     0.140960000000     0.820180000000     0.0322476  
C474     C      0.921820000000     0.124870000000     0.757750000000     0.0322523  
C475     C      0.889760000000     0.157520000000     0.746850000000     0.0321601  
C476     C      0.873570000000     0.172450000000     0.809280000000     0.0322995  
C477     C      0.904460000000     0.906080000000     0.807840000000     0.032535   
C478     C      0.919680000000     0.921850000000     0.870300000000     0.0324779  
C479     C      0.888130000000     0.888720000000     0.881190000000     0.0324481  
C480     C      0.871360000000     0.874530000000     0.818730000000     0.0320542  
C481     C      0.124670000000     0.922800000000     0.870340000000     0.0324817  
C482     C      0.139210000000     0.906380000000     0.807860000000     0.0324756  
C483     C      0.172060000000     0.874610000000     0.818740000000     0.0324532  
C484     C      0.155930000000     0.889430000000     0.881220000000     0.0326269  
C485     C      0.136420000000     0.141650000000     0.820020000000     0.0321702  
C486     C      0.120650000000     0.126360000000     0.757600000000     0.0321216  
C487     C      0.152690000000     0.159120000000     0.746700000000     0.0322397  
C488     C      0.169710000000     0.173170000000     0.809090000000     0.0321825  
C489     C      0.062060000000     0.016200000000     0.707970000000     0.0296142  
C490     C      0.981540000000     0.015920000000     0.708020000000     0.0300828  
C491     C      0.981450000000     0.031060000000     0.671620000000     0.0298408  
C492     C      0.061970000000     0.031300000000     0.671560000000     0.0297473  
C493     C      0.020050000000     0.060090000000     0.462650000000     0.0284347  
C494     C      0.021700000000     0.979950000000     0.454960000000     0.0338535  
C495     C      0.022130000000     0.986540000000     0.916980000000     0.0286818  
C496     C      0.020540000000     0.066670000000     0.924670000000     0.0329488  
C497     C      0.905670000000     0.142610000000     0.571410000000     0.0321641  
C498     C      0.917440000000     0.122490000000     0.509250000000     0.0322472  
C499     C      0.886330000000     0.155710000000     0.497960000000     0.0324653  
C500     C      0.873100000000     0.174560000000     0.560190000000     0.0326255  
C501     C      0.922810000000     0.920360000000     0.621920000000     0.0323132  
C502     C      0.905680000000     0.907070000000     0.559400000000     0.0325425  
C503     C      0.872230000000     0.875830000000     0.570100000000     0.0320892  
C504     C      0.890710000000     0.887560000000     0.632560000000     0.0324804  
C505     C      0.119730000000     0.920050000000     0.621720000000     0.0324554  
C506     C      0.136910000000     0.907000000000     0.559190000000     0.0323984  
C507     C      0.170520000000     0.875840000000     0.569860000000     0.0319558  
C508     C      0.151960000000     0.887340000000     0.632330000000     0.0323015  
C509     C      0.139710000000     0.139410000000     0.570210000000     0.0325432  
C510     C      0.123360000000     0.122990000000     0.508010000000     0.0328114  
C511     C      0.154910000000     0.155680000000     0.496510000000     0.0325342  
C512     C      0.172800000000     0.170570000000     0.558680000000     0.0325609  
Cu1      Cu     0.021530000000     0.037070000000     0.102570000000     1.18978    
Cu2      Cu     0.020890000000     0.012530000000     0.028570000000     1.21235    
Cu3      Cu     0.021840000000     0.034110000000     0.351050000000     1.1967     
Cu4      Cu     0.021840000000     0.009940000000     0.277030000000     1.19125    
Cu5      Cu     0.282810000000     0.273640000000     0.037730000000     1.20121    
Cu6      Cu     0.257580000000     0.273060000000     0.963840000000     1.19414    
Cu7      Cu     0.286250000000     0.271970000000     0.289390000000     1.18953    
Cu8      Cu     0.261050000000     0.272430000000     0.215510000000     1.20604    
Cu9      Cu     0.283420000000     0.773750000000     0.087500000000     1.18907    
Cu10     Cu     0.260500000000     0.773200000000     0.160910000000     1.19497    
Cu11     Cu     0.283480000000     0.771840000000     0.337500000000     1.18849    
Cu12     Cu     0.260490000000     0.772370000000     0.410910000000     1.19446    
Cu13     Cu     0.521240000000     0.010760000000     0.973390000000     1.19806    
Cu14     Cu     0.521270000000     0.036640000000     0.398850000000     1.19348    
Cu15     Cu     0.522010000000     0.010020000000     0.223580000000     1.21927    
Cu16     Cu     0.521520000000     0.036240000000     0.148900000000     1.20907    
Cu17     Cu     0.782540000000     0.773160000000     0.161020000000     1.19947    
Cu18     Cu     0.759620000000     0.773710000000     0.087560000000     1.19422    
Cu19     Cu     0.782580000000     0.772360000000     0.410980000000     1.18887    
Cu20     Cu     0.759660000000     0.771870000000     0.337610000000     1.18341    
Cu21     Cu     0.784190000000     0.273070000000     0.964370000000     1.20822    
Cu22     Cu     0.758210000000     0.273600000000     0.038940000000     1.20408    
Cu23     Cu     0.784060000000     0.272490000000     0.214360000000     1.20863    
Cu24     Cu     0.758110000000     0.272000000000     0.288950000000     1.20381    
Cu25     Cu     0.521240000000     0.534700000000     0.973430000000     1.21153    
Cu26     Cu     0.521270000000     0.508830000000     0.398770000000     1.20593    
Cu27     Cu     0.521980000000     0.535630000000     0.223510000000     1.20877    
Cu28     Cu     0.521520000000     0.509440000000     0.148970000000     1.19883    
Cu29     Cu     0.021530000000     0.511960000000     0.100950000000     1.20225    
Cu30     Cu     0.021020000000     0.536490000000     0.026860000000     1.20168    
Cu31     Cu     0.021830000000     0.507970000000     0.352660000000     1.18683    
Cu32     Cu     0.021770000000     0.532230000000     0.278630000000     1.20437    
Cu33     Cu     0.021530000000     0.037070000000     0.602570000000     1.18955    
Cu34     Cu     0.020890000000     0.012530000000     0.528580000000     1.21247    
Cu35     Cu     0.021840000000     0.034110000000     0.851050000000     1.1967     
Cu36     Cu     0.021840000000     0.009940000000     0.777030000000     1.19129    
Cu37     Cu     0.282810000000     0.273640000000     0.537740000000     1.20128    
Cu38     Cu     0.257590000000     0.273060000000     0.463850000000     1.19411    
Cu39     Cu     0.286260000000     0.271970000000     0.789390000000     1.18947    
Cu40     Cu     0.261050000000     0.272430000000     0.715520000000     1.20601    
Cu41     Cu     0.283420000000     0.773750000000     0.587500000000     1.1891     
Cu42     Cu     0.260490000000     0.773200000000     0.660910000000     1.19505    
Cu43     Cu     0.283480000000     0.771850000000     0.837500000000     1.18856    
Cu44     Cu     0.260490000000     0.772360000000     0.910910000000     1.19456    
Cu45     Cu     0.521240000000     0.010750000000     0.473390000000     1.19839    
Cu46     Cu     0.521270000000     0.036640000000     0.898850000000     1.19345    
Cu47     Cu     0.522010000000     0.010020000000     0.723580000000     1.21938    
Cu48     Cu     0.521520000000     0.036240000000     0.648900000000     1.20908    
Cu49     Cu     0.782550000000     0.773160000000     0.661030000000     1.19953    
Cu50     Cu     0.759620000000     0.773710000000     0.587560000000     1.1942     
Cu51     Cu     0.782580000000     0.772360000000     0.910980000000     1.18882    
Cu52     Cu     0.759660000000     0.771870000000     0.837610000000     1.18328    
Cu53     Cu     0.784180000000     0.273070000000     0.464370000000     1.20859    
Cu54     Cu     0.758200000000     0.273600000000     0.538950000000     1.20412    
Cu55     Cu     0.784060000000     0.272490000000     0.714370000000     1.20835    
Cu56     Cu     0.758110000000     0.272000000000     0.788950000000     1.20358    
Cu57     Cu     0.521240000000     0.534700000000     0.473440000000     1.21187    
Cu58     Cu     0.521280000000     0.508830000000     0.898760000000     1.20584    
Cu59     Cu     0.521980000000     0.535630000000     0.723510000000     1.20883    
Cu60     Cu     0.521520000000     0.509440000000     0.648970000000     1.19868    
Cu61     Cu     0.021530000000     0.511960000000     0.600950000000     1.20228    
Cu62     Cu     0.021020000000     0.536490000000     0.526860000000     1.20161    
Cu63     Cu     0.021830000000     0.507970000000     0.852660000000     1.18702    
Cu64     Cu     0.021780000000     0.532230000000     0.778630000000     1.20445    
H1       H      0.021720000000     0.588740000000     0.149550000000     0.0279611  
H2       H      0.021300000000     0.444810000000     0.162710000000     0.0185412  
H3       H      0.021310000000     0.455280000000     0.230090000000     0.028116   
H4       H      0.021900000000     0.599200000000     0.216890000000     0.0183359  
H5       H      0.948990000000     0.533910000000     0.972170000000     0.0263452  
H6       H      0.093330000000     0.535300000000     0.972470000000     0.0265732  
H7       H      0.093800000000     0.510620000000     0.407360000000     0.0267282  
H8       H      0.949450000000     0.509330000000     0.407020000000     0.0265189  
H9       H      0.449300000000     0.510760000000     0.343560000000     0.0262584  
H10      H      0.593630000000     0.509830000000     0.343900000000     0.0260965  
H11      H      0.594020000000     0.534210000000     0.278700000000     0.0261386  
H12      H      0.449690000000     0.535250000000     0.278400000000     0.0262589  
H13      H      0.593420000000     0.533870000000     0.028460000000     0.0260502  
H14      H      0.449090000000     0.533190000000     0.028550000000     0.0260886  
H15      H      0.449270000000     0.509800000000     0.094000000000     0.0265841  
H16      H      0.593590000000     0.510410000000     0.093870000000     0.0261343  
H17      H      0.855760000000     0.351760000000     0.331400000000     0.0364298  
H18      H      0.880430000000     0.385210000000     0.218590000000     0.0360417  
H19      H      0.934790000000     0.442040000000     0.237670000000     0.0362186  
H20      H      0.912040000000     0.407140000000     0.350490000000     0.0361427  
H21      H      0.687660000000     0.353840000000     0.172050000000     0.0365403  
H22      H      0.658470000000     0.382710000000     0.284960000000     0.0359937  
H23      H      0.603510000000     0.439300000000     0.265840000000     0.036391   
H24      H      0.631490000000     0.409210000000     0.152940000000     0.036059   
H25      H      0.782310000000     0.345090000000     0.409040000000     0.0257405  
H26      H      0.783870000000     0.200430000000     0.409560000000     0.0260952  
H27      H      0.760140000000     0.199840000000     0.344210000000     0.0259307  
H28      H      0.758390000000     0.344490000000     0.343770000000     0.0261092  
H29      H      0.758370000000     0.201110000000     0.093750000000     0.0261212  
H30      H      0.760170000000     0.345770000000     0.094200000000     0.0259621  
H31      H      0.783780000000     0.345130000000     0.159580000000     0.0261624  
H32      H      0.782190000000     0.200470000000     0.159050000000     0.0257671  
H33      H      0.884200000000     0.382830000000     0.967610000000     0.0361261  
H34      H      0.855620000000     0.354980000000     0.080780000000     0.0362689  
H35      H      0.912570000000     0.409990000000     0.099320000000     0.0366682  
H36      H      0.939730000000     0.439070000000     0.986120000000     0.036347   
H37      H      0.688460000000     0.354760000000     0.421990000000     0.0362368  
H38      H      0.658430000000     0.383310000000     0.034830000000     0.0362411  
H39      H      0.602960000000     0.439160000000     0.015590000000     0.0364397  
H40      H      0.631820000000     0.409530000000     0.402730000000     0.0360308  
H41      H      0.853260000000     0.685890000000     0.298250000000     0.0357384  
H42      H      0.886320000000     0.664550000000     0.411530000000     0.0367416  
H43      H      0.942220000000     0.608080000000     0.393460000000     0.0364406  
H44      H      0.910830000000     0.631570000000     0.280170000000     0.0368128  
H45      H      0.656370000000     0.663920000000     0.338090000000     0.036804   
H46      H      0.691070000000     0.685640000000     0.451040000000     0.0359522  
H47      H      0.633820000000     0.631440000000     0.469790000000     0.0359004  
H48      H      0.600670000000     0.607700000000     0.356830000000     0.0363449  
H49      H      0.704930000000     0.773820000000     0.208460000000     0.0273304  
H50      H      0.848320000000     0.771570000000     0.222830000000     0.0196168  
H51      H      0.837080000000     0.770890000000     0.290100000000     0.0276518  
H52      H      0.693660000000     0.773040000000     0.275770000000     0.0199209  
H53      H      0.837180000000     0.774640000000     0.040120000000     0.0273292  
H54      H      0.693780000000     0.772590000000     0.025720000000     0.0197992  
H55      H      0.705070000000     0.771760000000     0.958440000000     0.02763    
H56      H      0.848470000000     0.773910000000     0.972830000000     0.0197158  
H57      H      0.852340000000     0.688760000000     0.047280000000     0.0356773  
H58      H      0.882600000000     0.662720000000     0.160490000000     0.0367612  
H59      H      0.937330000000     0.605700000000     0.141890000000     0.0354767  
H60      H      0.909190000000     0.634050000000     0.028700000000     0.0361417  
H61      H      0.690630000000     0.687180000000     0.200830000000     0.0361216  
H62      H      0.656270000000     0.665240000000     0.087840000000     0.0365625  
H63      H      0.600990000000     0.608460000000     0.106570000000     0.0363531  
H64      H      0.633930000000     0.632540000000     0.219530000000     0.0361678  
H65      H      0.600870000000     0.937710000000     0.106810000000     0.0363456  
H66      H      0.634450000000     0.913940000000     0.219720000000     0.0361139  
H67      H      0.691580000000     0.859820000000     0.200890000000     0.0359452  
H68      H      0.656530000000     0.881520000000     0.087960000000     0.0368252  
H69      H      0.631560000000     0.136140000000     0.152780000000     0.0359208  
H70      H      0.603370000000     0.105870000000     0.265650000000     0.0362874  
H71      H      0.658640000000     0.161930000000     0.284870000000     0.0361933  
H72      H      0.688040000000     0.191100000000     0.172020000000     0.0362262  
H73      H      0.449320000000     0.035120000000     0.343640000000     0.0263117  
H74      H      0.593640000000     0.036030000000     0.344000000000     0.0261972  
H75      H      0.594040000000     0.011740000000     0.278780000000     0.0258157  
H76      H      0.449720000000     0.010730000000     0.278470000000     0.0259873  
H77      H      0.593420000000     0.011300000000     0.028410000000     0.0261475  
H78      H      0.449100000000     0.011940000000     0.028510000000     0.0261242  
H79      H      0.449270000000     0.035450000000     0.093920000000     0.026333   
H80      H      0.593600000000     0.034910000000     0.093780000000     0.0258342  
H81      H      0.633490000000     0.913280000000     0.469610000000     0.0361042  
H82      H      0.600850000000     0.937380000000     0.356620000000     0.036606   
H83      H      0.656200000000     0.880600000000     0.337970000000     0.0366138  
H84      H      0.690320000000     0.858590000000     0.450970000000     0.0361801  
H85      H      0.603080000000     0.106820000000     0.015810000000     0.0365097  
H86      H      0.631680000000     0.136390000000     0.402910000000     0.0361082  
H87      H      0.688000000000     0.191550000000     0.922030000000     0.0365927  
H88      H      0.658230000000     0.163200000000     0.034930000000     0.0359809  
H89      H      0.101170000000     0.608050000000     0.393350000000     0.0362103  
H90      H      0.132830000000     0.631320000000     0.280060000000     0.0367771  
H91      H      0.190190000000     0.685820000000     0.298160000000     0.0357511  
H92      H      0.156850000000     0.664670000000     0.411430000000     0.0366892  
H93      H      0.351520000000     0.685480000000     0.450940000000     0.0360026  
H94      H      0.386570000000     0.663910000000     0.338020000000     0.036824   
H95      H      0.442080000000     0.607560000000     0.356820000000     0.0362486  
H96      H      0.408550000000     0.631130000000     0.469750000000     0.0359513  
H97      H      0.352590000000     0.858440000000     0.450860000000     0.0362044  
H98      H      0.386730000000     0.880630000000     0.337870000000     0.0366335  
H99      H      0.441820000000     0.937590000000     0.356570000000     0.0365184  
H100     H      0.409150000000     0.913340000000     0.469540000000     0.0362083  
H101     H      0.194680000000     0.771570000000     0.222760000000     0.0195692  
H102     H      0.338060000000     0.773890000000     0.208350000000     0.0274795  
H103     H      0.349370000000     0.773070000000     0.275640000000     0.0197813  
H104     H      0.205980000000     0.770840000000     0.290040000000     0.0274793  
H105     H      0.194660000000     0.774030000000     0.972740000000     0.019528   
H106     H      0.338060000000     0.771600000000     0.958360000000     0.0275513  
H107     H      0.349340000000     0.772470000000     0.025650000000     0.0198653  
H108     H      0.205940000000     0.774790000000     0.040010000000     0.0274195  
H109     H      0.105980000000     0.605400000000     0.141870000000     0.0355476  
H110     H      0.133080000000     0.634400000000     0.028620000000     0.0358855  
H111     H      0.190050000000     0.689130000000     0.047130000000     0.0356358  
H112     H      0.160700000000     0.662420000000     0.160370000000     0.0367899  
H113     H      0.352710000000     0.687280000000     0.200860000000     0.0361585  
H114     H      0.386940000000     0.665320000000     0.087860000000     0.0366696  
H115     H      0.442350000000     0.608660000000     0.106550000000     0.0365913  
H116     H      0.409600000000     0.632710000000     0.219540000000     0.0359997  
H117     H      0.386830000000     0.881320000000     0.088030000000     0.0369544  
H118     H      0.351710000000     0.859850000000     0.200940000000     0.0359678  
H119     H      0.409090000000     0.913830000000     0.219750000000     0.0359568  
H120     H      0.442670000000     0.937320000000     0.106820000000     0.0366015  
H121     H      0.161380000000     0.383040000000     0.218420000000     0.0369296  
H122     H      0.188430000000     0.351860000000     0.331270000000     0.0363076  
H123     H      0.132100000000     0.407200000000     0.350420000000     0.0361386  
H124     H      0.106980000000     0.439940000000     0.237530000000     0.036054   
H125     H      0.388180000000     0.381280000000     0.286230000000     0.0362392  
H126     H      0.351150000000     0.359000000000     0.173840000000     0.036263   
H127     H      0.408100000000     0.412980000000     0.154110000000     0.0360283  
H128     H      0.443640000000     0.437180000000     0.266530000000     0.0366755  
H129     H      0.443910000000     0.108140000000     0.266270000000     0.0365895  
H130     H      0.407460000000     0.131680000000     0.153910000000     0.0359047  
H131     H      0.350010000000     0.185050000000     0.173780000000     0.0360527  
H132     H      0.388000000000     0.163360000000     0.286080000000     0.0364263  
H133     H      0.283310000000     0.199750000000     0.344260000000     0.0262154  
H134     H      0.285250000000     0.344420000000     0.343870000000     0.0264971  
H135     H      0.260360000000     0.345040000000     0.408890000000     0.026129   
H136     H      0.258680000000     0.200370000000     0.409390000000     0.0264179  
H137     H      0.349270000000     0.272440000000     0.100040000000     0.0186403  
H138     H      0.205840000000     0.274600000000     0.085950000000     0.0278914  
H139     H      0.194680000000     0.273950000000     0.153220000000     0.0183877  
H140     H      0.338100000000     0.271710000000     0.167340000000     0.0279563  
H141     H      0.191470000000     0.360000000000     0.078840000000     0.0358286  
H142     H      0.155230000000     0.381460000000     0.966170000000     0.0362982  
H143     H      0.099190000000     0.437010000000     0.985330000000     0.0365353  
H144     H      0.133740000000     0.413570000000     0.098050000000     0.0367539  
H145     H      0.385540000000     0.381420000000     0.034910000000     0.0370368  
H146     H      0.353820000000     0.354640000000     0.922110000000     0.036132   
H147     H      0.410470000000     0.409430000000     0.902820000000     0.036123   
H148     H      0.440980000000     0.437410000000     0.015660000000     0.0365814  
H149     H      0.385730000000     0.165100000000     0.035000000000     0.0367848  
H150     H      0.354380000000     0.191780000000     0.422140000000     0.0364998  
H151     H      0.410680000000     0.136560000000     0.403010000000     0.0362128  
H152     H      0.440810000000     0.108520000000     0.015870000000     0.0367039  
H153     H      0.912490000000     0.135640000000     0.349370000000     0.0367745  
H154     H      0.940050000000     0.106950000000     0.236170000000     0.0365045  
H155     H      0.884330000000     0.163000000000     0.217640000000     0.0361436  
H156     H      0.855380000000     0.190480000000     0.330810000000     0.0362754  
H157     H      0.909900000000     0.911660000000     0.278640000000     0.0360494  
H158     H      0.937740000000     0.939890000000     0.391870000000     0.0356698  
H159     H      0.882950000000     0.882860000000     0.410370000000     0.0368103  
H160     H      0.852930000000     0.856890000000     0.297160000000     0.0357608  
H161     H      0.107010000000     0.941210000000     0.391910000000     0.035585   
H162     H      0.133570000000     0.911760000000     0.278670000000     0.0360865  
H163     H      0.190150000000     0.856610000000     0.297160000000     0.0356455  
H164     H      0.161310000000     0.883760000000     0.410410000000     0.0367158  
H165     H      0.131110000000     0.136000000000     0.349210000000     0.0368294  
H166     H      0.102110000000     0.108740000000     0.236040000000     0.0365377  
H167     H      0.157790000000     0.164940000000     0.217500000000     0.0369135  
H168     H      0.188220000000     0.190850000000     0.330630000000     0.0362052  
H169     H      0.094000000000     0.012010000000     0.222440000000     0.0264145  
H170     H      0.949650000000     0.011500000000     0.222510000000     0.0263964  
H171     H      0.949510000000     0.035240000000     0.157160000000     0.0262523  
H172     H      0.093860000000     0.035620000000     0.157030000000     0.0267911  
H173     H      0.019390000000     0.089710000000     0.980390000000     0.0278401  
H174     H      0.022240000000     0.945910000000     0.966540000000     0.0180523  
H175     H      0.022780000000     0.956920000000     0.399250000000     0.0278776  
H176     H      0.020050000000     0.100710000000     0.413090000000     0.0187058  
H177     H      0.912450000000     0.138800000000     0.100600000000     0.036043   
H178     H      0.933850000000     0.102580000000     0.987880000000     0.0360541  
H179     H      0.879830000000     0.159700000000     0.968740000000     0.0359982  
H180     H      0.856370000000     0.194400000000     0.081460000000     0.0364258  
H181     H      0.942000000000     0.937190000000     0.143520000000     0.0364025  
H182     H      0.910400000000     0.913620000000     0.030260000000     0.0370383  
H183     H      0.852930000000     0.859370000000     0.048400000000     0.0356974  
H184     H      0.886150000000     0.880740000000     0.161680000000     0.0367583  
H185     H      0.100490000000     0.936740000000     0.143370000000     0.0365516  
H186     H      0.132150000000     0.913620000000     0.030070000000     0.0367936  
H187     H      0.189900000000     0.859500000000     0.048160000000     0.0357213  
H188     H      0.156530000000     0.880480000000     0.161440000000     0.0367965  
H189     H      0.134720000000     0.134210000000     0.099490000000     0.03595    
H190     H      0.104860000000     0.104820000000     0.986760000000     0.0357685  
H191     H      0.159600000000     0.161140000000     0.967220000000     0.0361789  
H192     H      0.191720000000     0.188350000000     0.079900000000     0.0357307  
H193     H      0.021730000000     0.588740000000     0.649550000000     0.0279355  
H194     H      0.021300000000     0.444810000000     0.662710000000     0.018542   
H195     H      0.021310000000     0.455280000000     0.730100000000     0.0281192  
H196     H      0.021900000000     0.599190000000     0.716890000000     0.0183424  
H197     H      0.948980000000     0.533910000000     0.472160000000     0.026335   
H198     H      0.093330000000     0.535300000000     0.472470000000     0.0265748  
H199     H      0.093800000000     0.510620000000     0.907370000000     0.0267292  
H200     H      0.949450000000     0.509330000000     0.907010000000     0.0264896  
H201     H      0.449310000000     0.510770000000     0.843560000000     0.0262436  
H202     H      0.593630000000     0.509830000000     0.843900000000     0.0260746  
H203     H      0.594020000000     0.534220000000     0.778700000000     0.0261631  
H204     H      0.449690000000     0.535260000000     0.778400000000     0.0262877  
H205     H      0.593420000000     0.533880000000     0.528460000000     0.0260335  
H206     H      0.449090000000     0.533190000000     0.528550000000     0.0260709  
H207     H      0.449270000000     0.509800000000     0.594000000000     0.0265783  
H208     H      0.593600000000     0.510400000000     0.593880000000     0.0261351  
H209     H      0.855750000000     0.351760000000     0.831410000000     0.0364309  
H210     H      0.880430000000     0.385200000000     0.718590000000     0.0360284  
H211     H      0.934790000000     0.442030000000     0.737680000000     0.0362503  
H212     H      0.912040000000     0.407140000000     0.850500000000     0.0361227  
H213     H      0.687660000000     0.353840000000     0.672060000000     0.036577   
H214     H      0.658460000000     0.382710000000     0.784970000000     0.0359977  
H215     H      0.603510000000     0.439310000000     0.765850000000     0.0363802  
H216     H      0.631490000000     0.409210000000     0.652950000000     0.0360558  
H217     H      0.782320000000     0.345090000000     0.909050000000     0.0257838  
H218     H      0.783880000000     0.200430000000     0.909560000000     0.0261067  
H219     H      0.760140000000     0.199840000000     0.844220000000     0.0259333  
H220     H      0.758380000000     0.344490000000     0.843780000000     0.0260965  
H221     H      0.758370000000     0.201110000000     0.593760000000     0.0261233  
H222     H      0.760170000000     0.345760000000     0.594210000000     0.0259396  
H223     H      0.783780000000     0.345120000000     0.659590000000     0.0261792  
H224     H      0.782190000000     0.200470000000     0.659060000000     0.0257478  
H225     H      0.884190000000     0.382820000000     0.467610000000     0.036156   
H226     H      0.855620000000     0.354980000000     0.580790000000     0.0362333  
H227     H      0.912570000000     0.409990000000     0.599330000000     0.0366898  
H228     H      0.939730000000     0.439060000000     0.486120000000     0.0363305  
H229     H      0.688460000000     0.354760000000     0.921980000000     0.0362538  
H230     H      0.658430000000     0.383310000000     0.534840000000     0.0362194  
H231     H      0.602950000000     0.439160000000     0.515600000000     0.0364434  
H232     H      0.631820000000     0.409530000000     0.902720000000     0.0360094  
H233     H      0.853250000000     0.685890000000     0.798250000000     0.0357461  
H234     H      0.886330000000     0.664540000000     0.911530000000     0.0367248  
H235     H      0.942220000000     0.608080000000     0.893460000000     0.0364374  
H236     H      0.910830000000     0.631570000000     0.780170000000     0.0367984  
H237     H      0.656370000000     0.663920000000     0.838090000000     0.0368007  
H238     H      0.691070000000     0.685630000000     0.951040000000     0.0359251  
H239     H      0.633830000000     0.631440000000     0.969790000000     0.0359145  
H240     H      0.600670000000     0.607710000000     0.856830000000     0.0363454  
H241     H      0.704930000000     0.773820000000     0.708460000000     0.027335   
H242     H      0.848320000000     0.771570000000     0.722830000000     0.0196034  
H243     H      0.837080000000     0.770890000000     0.790100000000     0.0276416  
H244     H      0.693670000000     0.773040000000     0.775770000000     0.0198998  
H245     H      0.837180000000     0.774640000000     0.540110000000     0.0273211  
H246     H      0.693790000000     0.772590000000     0.525720000000     0.0197964  
H247     H      0.705070000000     0.771760000000     0.458440000000     0.0276249  
H248     H      0.848470000000     0.773920000000     0.472820000000     0.0197153  
H249     H      0.852340000000     0.688760000000     0.547280000000     0.0356811  
H250     H      0.882600000000     0.662720000000     0.660490000000     0.036772   
H251     H      0.937320000000     0.605700000000     0.641890000000     0.0354478  
H252     H      0.909190000000     0.634050000000     0.528700000000     0.0361372  
H253     H      0.690630000000     0.687180000000     0.700830000000     0.0361321  
H254     H      0.656280000000     0.665240000000     0.587840000000     0.0365683  
H255     H      0.600990000000     0.608460000000     0.606570000000     0.0363553  
H256     H      0.633930000000     0.632540000000     0.719530000000     0.0361662  
H257     H      0.600870000000     0.937710000000     0.606810000000     0.0363458  
H258     H      0.634440000000     0.913930000000     0.719720000000     0.0361134  
H259     H      0.691580000000     0.859820000000     0.700880000000     0.0359531  
H260     H      0.656530000000     0.881520000000     0.587960000000     0.0368272  
H261     H      0.631560000000     0.136140000000     0.652780000000     0.0359269  
H262     H      0.603360000000     0.105870000000     0.765650000000     0.0363074  
H263     H      0.658630000000     0.161930000000     0.784880000000     0.0361917  
H264     H      0.688040000000     0.191100000000     0.672020000000     0.0361998  
H265     H      0.449320000000     0.035120000000     0.843640000000     0.026324   
H266     H      0.593640000000     0.036020000000     0.844000000000     0.026199   
H267     H      0.594040000000     0.011730000000     0.778780000000     0.0258145  
H268     H      0.449720000000     0.010720000000     0.778470000000     0.0259616  
H269     H      0.593420000000     0.011300000000     0.528410000000     0.0261418  
H270     H      0.449100000000     0.011930000000     0.528510000000     0.0261455  
H271     H      0.449280000000     0.035450000000     0.593920000000     0.026326   
H272     H      0.593600000000     0.034910000000     0.593780000000     0.0258238  
H273     H      0.633480000000     0.913280000000     0.969610000000     0.0361298  
H274     H      0.600850000000     0.937370000000     0.856620000000     0.0365854  
H275     H      0.656190000000     0.880600000000     0.837970000000     0.0366121  
H276     H      0.690320000000     0.858590000000     0.950970000000     0.0361731  
H277     H      0.603070000000     0.106820000000     0.515810000000     0.0364885  
H278     H      0.631680000000     0.136390000000     0.902910000000     0.0361148  
H279     H      0.688000000000     0.191550000000     0.422040000000     0.0365924  
H280     H      0.658220000000     0.163200000000     0.534940000000     0.0359917  
H281     H      0.101170000000     0.608050000000     0.893340000000     0.0362215  
H282     H      0.132830000000     0.631320000000     0.780060000000     0.036786   
H283     H      0.190190000000     0.685820000000     0.798160000000     0.0357459  
H284     H      0.156850000000     0.664670000000     0.911430000000     0.0366785  
H285     H      0.351520000000     0.685480000000     0.950940000000     0.0359641  
H286     H      0.386570000000     0.663910000000     0.838030000000     0.0368347  
H287     H      0.442080000000     0.607560000000     0.856820000000     0.0362413  
H288     H      0.408550000000     0.631130000000     0.969750000000     0.0359928  
H289     H      0.352590000000     0.858440000000     0.950860000000     0.0362063  
H290     H      0.386730000000     0.880630000000     0.837870000000     0.0366332  
H291     H      0.441820000000     0.937590000000     0.856570000000     0.0365077  
H292     H      0.409140000000     0.913340000000     0.969540000000     0.0361954  
H293     H      0.194670000000     0.771570000000     0.722760000000     0.019566   
H294     H      0.338060000000     0.773890000000     0.708350000000     0.0274735  
H295     H      0.349370000000     0.773070000000     0.775640000000     0.0197827  
H296     H      0.205980000000     0.770840000000     0.790040000000     0.0274779  
H297     H      0.194660000000     0.774040000000     0.472740000000     0.0195336  
H298     H      0.338060000000     0.771600000000     0.458360000000     0.0275195  
H299     H      0.349340000000     0.772470000000     0.525650000000     0.0198751  
H300     H      0.205940000000     0.774790000000     0.540010000000     0.0274226  
H301     H      0.105980000000     0.605400000000     0.641870000000     0.0355453  
H302     H      0.133080000000     0.634400000000     0.528620000000     0.035887   
H303     H      0.190050000000     0.689130000000     0.547130000000     0.0356355  
H304     H      0.160700000000     0.662420000000     0.660370000000     0.0367947  
H305     H      0.352710000000     0.687280000000     0.700860000000     0.0361586  
H306     H      0.386940000000     0.665320000000     0.587860000000     0.036677   
H307     H      0.442350000000     0.608660000000     0.606550000000     0.0365869  
H308     H      0.409600000000     0.632720000000     0.719540000000     0.0359914  
H309     H      0.386830000000     0.881320000000     0.588030000000     0.0369277  
H310     H      0.351710000000     0.859850000000     0.700940000000     0.0359862  
H311     H      0.409090000000     0.913820000000     0.719750000000     0.0359312  
H312     H      0.442670000000     0.937310000000     0.606820000000     0.0366063  
H313     H      0.161390000000     0.383040000000     0.718420000000     0.0369522  
H314     H      0.188430000000     0.351870000000     0.831270000000     0.0363217  
H315     H      0.132100000000     0.407200000000     0.850420000000     0.0361522  
H316     H      0.106980000000     0.439930000000     0.737530000000     0.0360415  
H317     H      0.388190000000     0.381280000000     0.786240000000     0.0362187  
H318     H      0.351150000000     0.359000000000     0.673840000000     0.0362234  
H319     H      0.408100000000     0.412980000000     0.654110000000     0.0360712  
H320     H      0.443640000000     0.437180000000     0.766530000000     0.0366946  
H321     H      0.443910000000     0.108130000000     0.766270000000     0.0366104  
H322     H      0.407460000000     0.131680000000     0.653920000000     0.03591    
H323     H      0.350010000000     0.185050000000     0.673780000000     0.0360697  
H324     H      0.388000000000     0.163360000000     0.786080000000     0.036415   
H325     H      0.283320000000     0.199750000000     0.844270000000     0.0262324  
H326     H      0.285250000000     0.344420000000     0.843870000000     0.0265242  
H327     H      0.260350000000     0.345040000000     0.908900000000     0.0261245  
H328     H      0.258670000000     0.200370000000     0.909400000000     0.0264365  
H329     H      0.349270000000     0.272440000000     0.600050000000     0.018649   
H330     H      0.205840000000     0.274600000000     0.585950000000     0.0278869  
H331     H      0.194690000000     0.273950000000     0.653230000000     0.018382   
H332     H      0.338110000000     0.271710000000     0.667340000000     0.02795    
H333     H      0.191470000000     0.360000000000     0.578840000000     0.0357974  
H334     H      0.155230000000     0.381450000000     0.466180000000     0.036306   
H335     H      0.099200000000     0.437010000000     0.485330000000     0.0365382  
H336     H      0.133740000000     0.413570000000     0.598050000000     0.0368058  
H337     H      0.385550000000     0.381420000000     0.534910000000     0.0370187  
H338     H      0.353820000000     0.354650000000     0.422120000000     0.0361275  
H339     H      0.410470000000     0.409430000000     0.402830000000     0.0361183  
H340     H      0.440980000000     0.437410000000     0.515660000000     0.0366013  
H341     H      0.385730000000     0.165090000000     0.535000000000     0.0368251  
H342     H      0.354380000000     0.191780000000     0.922130000000     0.0365129  
H343     H      0.410680000000     0.136560000000     0.903000000000     0.0362099  
H344     H      0.440820000000     0.108520000000     0.515870000000     0.0366714  
H345     H      0.912490000000     0.135640000000     0.849370000000     0.036742   
H346     H      0.940050000000     0.106950000000     0.736180000000     0.0365043  
H347     H      0.884330000000     0.163000000000     0.717640000000     0.0361231  
H348     H      0.855380000000     0.190480000000     0.830810000000     0.0363222  
H349     H      0.909900000000     0.911660000000     0.778640000000     0.0360591  
H350     H      0.937740000000     0.939890000000     0.891870000000     0.0356699  
H351     H      0.882950000000     0.882870000000     0.910370000000     0.0368053  
H352     H      0.852930000000     0.856890000000     0.797160000000     0.0357543  
H353     H      0.107010000000     0.941210000000     0.891920000000     0.0355707  
H354     H      0.133570000000     0.911760000000     0.778670000000     0.0360912  
H355     H      0.190150000000     0.856610000000     0.797160000000     0.0356252  
H356     H      0.161310000000     0.883750000000     0.910410000000     0.0367382  
H357     H      0.131110000000     0.136000000000     0.849210000000     0.0368343  
H358     H      0.102110000000     0.108740000000     0.736040000000     0.0365604  
H359     H      0.157800000000     0.164940000000     0.717500000000     0.0369019  
H360     H      0.188220000000     0.190850000000     0.830630000000     0.0361836  
H361     H      0.094010000000     0.012010000000     0.722440000000     0.0264162  
H362     H      0.949650000000     0.011500000000     0.722510000000     0.0263926  
H363     H      0.949500000000     0.035240000000     0.657160000000     0.026247   
H364     H      0.093860000000     0.035620000000     0.657030000000     0.0267955  
H365     H      0.019390000000     0.089710000000     0.480380000000     0.0278681  
H366     H      0.022240000000     0.945920000000     0.466540000000     0.0180494  
H367     H      0.022780000000     0.956920000000     0.899250000000     0.0278777  
H368     H      0.020050000000     0.100710000000     0.913090000000     0.0186959  
H369     H      0.912450000000     0.138800000000     0.600600000000     0.0360453  
H370     H      0.933850000000     0.102580000000     0.487880000000     0.0360548  
H371     H      0.879830000000     0.159700000000     0.468740000000     0.0359884  
H372     H      0.856370000000     0.194400000000     0.581460000000     0.0364184  
H373     H      0.942010000000     0.937190000000     0.643520000000     0.0364094  
H374     H      0.910400000000     0.913620000000     0.530260000000     0.037025   
H375     H      0.852930000000     0.859380000000     0.548400000000     0.0356988  
H376     H      0.886150000000     0.880740000000     0.661680000000     0.0367561  
H377     H      0.100490000000     0.936740000000     0.643370000000     0.0365214  
H378     H      0.132150000000     0.913620000000     0.530070000000     0.0367946  
H379     H      0.189900000000     0.859500000000     0.548160000000     0.035723   
H380     H      0.156530000000     0.880480000000     0.661440000000     0.0368207  
H381     H      0.134720000000     0.134210000000     0.599500000000     0.035947   
H382     H      0.104860000000     0.104830000000     0.486760000000     0.0357702  
H383     H      0.159600000000     0.161150000000     0.467220000000     0.0361743  
H384     H      0.191720000000     0.188350000000     0.579910000000     0.0357168  
N1       N      0.021570000000     0.515880000000     0.152360000000    -0.243693   
N2       N      0.021690000000     0.528140000000     0.227250000000    -0.244085   
N3       N      0.021120000000     0.537280000000     0.975550000000    -0.246401   
N4       N      0.021660000000     0.507260000000     0.403970000000    -0.244839   
N5       N      0.521440000000     0.507460000000     0.347110000000    -0.243946   
N6       N      0.521890000000     0.537500000000     0.275150000000    -0.244276   
N7       N      0.521240000000     0.536250000000     0.025090000000    -0.244561   
N8       N      0.521450000000     0.507330000000     0.097340000000    -0.243257   
N9       N      0.863560000000     0.364390000000     0.273350000000    -0.189846   
N10      N      0.927620000000     0.429140000000     0.295770000000    -0.189625   
N11      N      0.677820000000     0.364240000000     0.230190000000    -0.188795   
N12      N      0.613510000000     0.429050000000     0.207710000000    -0.188681   
N13      N      0.785790000000     0.272810000000     0.412730000000    -0.244372   
N14      N      0.756500000000     0.272120000000     0.340590000000    -0.243839   
N15      N      0.756520000000     0.273490000000     0.090580000000    -0.243846   
N16      N      0.785700000000     0.272750000000     0.162720000000    -0.244366   
N17      N      0.865080000000     0.364930000000     0.022570000000    -0.188575   
N18      N      0.930160000000     0.429330000000     0.044350000000    -0.187629   
N19      N      0.678190000000     0.365090000000     0.980080000000    -0.189414   
N20      N      0.613380000000     0.429040000000     0.957470000000    -0.189562   
N21      N      0.865040000000     0.679390000000     0.356510000000    -0.187155   
N22      N      0.930660000000     0.615150000000     0.335250000000    -0.18734    
N23      N      0.678370000000     0.678940000000     0.392900000000    -0.187901   
N24      N      0.613140000000     0.614990000000     0.414930000000    -0.189344   
N25      N      0.777530000000     0.772810000000     0.212050000000    -0.245971   
N26      N      0.764460000000     0.771730000000     0.286560000000    -0.244185   
N27      N      0.764570000000     0.773860000000     0.036530000000    -0.245458   
N28      N      0.777680000000     0.772710000000     0.962020000000    -0.244779   
N29      N      0.863040000000     0.679970000000     0.105510000000    -0.189099   
N30      N      0.927500000000     0.615450000000     0.083680000000    -0.190236   
N31      N      0.678090000000     0.680400000000     0.142660000000    -0.188287   
N32      N      0.613400000000     0.615870000000     0.164660000000    -0.189083   
N33      N      0.613590000000     0.930350000000     0.164870000000    -0.190065   
N34      N      0.678640000000     0.866530000000     0.142760000000    -0.188883   
N35      N      0.613490000000     0.116270000000     0.207530000000    -0.189607   
N36      N      0.678090000000     0.180460000000     0.230120000000    -0.189422   
N37      N      0.521450000000     0.038390000000     0.347210000000    -0.242751   
N38      N      0.521910000000     0.008450000000     0.275230000000    -0.245418   
N39      N      0.521240000000     0.008900000000     0.025040000000    -0.243269   
N40      N      0.521450000000     0.037980000000     0.097250000000    -0.244341   
N41      N      0.613060000000     0.930010000000     0.414740000000    -0.188228   
N42      N      0.677940000000     0.865380000000     0.392790000000    -0.187241   
N43      N      0.613340000000     0.116840000000     0.957670000000    -0.18851    
N44      N      0.677870000000     0.181410000000     0.980170000000    -0.188705   
N45      N      0.112920000000     0.615000000000     0.335140000000    -0.187731   
N46      N      0.178230000000     0.679420000000     0.356410000000    -0.187555   
N47      N      0.364440000000     0.678850000000     0.392810000000    -0.188405   
N48      N      0.429380000000     0.614760000000     0.414900000000    -0.18986    
N49      N      0.365010000000     0.865320000000     0.392680000000    -0.187729   
N50      N      0.429540000000     0.930160000000     0.414670000000    -0.188567   
N51      N      0.265460000000     0.772860000000     0.211950000000    -0.245386   
N52      N      0.278590000000     0.771720000000     0.286450000000    -0.244695   
N53      N      0.265450000000     0.772680000000     0.961940000000    -0.245426   
N54      N      0.278550000000     0.773890000000     0.036450000000    -0.244732   
N55      N      0.115270000000     0.615440000000     0.083620000000    -0.189955   
N56      N      0.179840000000     0.680010000000     0.105370000000    -0.188723   
N57      N      0.365150000000     0.680470000000     0.142680000000    -0.187818   
N58      N      0.430050000000     0.616030000000     0.164660000000    -0.188862   
N59      N      0.364630000000     0.866460000000     0.142820000000    -0.188449   
N60      N      0.429970000000     0.930130000000     0.164900000000    -0.189862   
N61      N      0.179540000000     0.363410000000     0.273180000000    -0.188141   
N62      N      0.115380000000     0.428210000000     0.295670000000    -0.189131   
N63      N      0.365050000000     0.365970000000     0.231800000000    -0.189083   
N64      N      0.429960000000     0.429660000000     0.208610000000    -0.18933    
N65      N      0.429790000000     0.115440000000     0.208390000000    -0.190319   
N66      N      0.364430000000     0.178320000000     0.231680000000    -0.189782   
N67      N      0.287010000000     0.272040000000     0.340790000000    -0.244303   
N68      N      0.256860000000     0.272750000000     0.412440000000    -0.244721   
N69      N      0.278500000000     0.273760000000     0.089200000000    -0.243011   
N70      N      0.265450000000     0.272700000000     0.164070000000    -0.243707   
N71      N      0.178040000000     0.366620000000     0.020800000000    -0.188903   
N72      N      0.112360000000     0.429870000000     0.043340000000    -0.18836    
N73      N      0.364850000000     0.364120000000     0.980200000000    -0.187745   
N74      N      0.429710000000     0.428210000000     0.957560000000    -0.18896    
N75      N      0.365210000000     0.182440000000     0.980270000000    -0.187154   
N76      N      0.429750000000     0.117690000000     0.957750000000    -0.187885   
N77      N      0.930320000000     0.116530000000     0.294400000000    -0.18747    
N78      N      0.865020000000     0.180710000000     0.272600000000    -0.188608   
N79      N      0.928080000000     0.930270000000     0.333630000000    -0.189358   
N80      N      0.863430000000     0.865630000000     0.355400000000    -0.18819    
N81      N      0.116030000000     0.930950000000     0.333670000000    -0.189687   
N82      N      0.180140000000     0.865890000000     0.355410000000    -0.188797   
N83      N      0.112600000000     0.117520000000     0.294250000000    -0.186926   
N84      N      0.177920000000     0.181830000000     0.272420000000    -0.186871   
N85      N      0.021840000000     0.009150000000     0.225730000000    -0.245521   
N86      N      0.021670000000     0.038100000000     0.153860000000    -0.245335   
N87      N      0.020680000000     0.016880000000     0.977220000000    -0.245265   
N88      N      0.021630000000     0.029750000000     0.402410000000    -0.24357    
N89      N      0.927350000000     0.116140000000     0.045940000000    -0.189786   
N90      N      0.863600000000     0.181160000000     0.023460000000    -0.189905   
N91      N      0.930290000000     0.930030000000     0.085330000000    -0.188114   
N92      N      0.864850000000     0.865920000000     0.106650000000    -0.18804    
N93      N      0.112220000000     0.929830000000     0.085160000000    -0.187774   
N94      N      0.177960000000     0.865870000000     0.106410000000    -0.187668   
N95      N      0.115490000000     0.115170000000     0.044840000000    -0.190359   
N96      N      0.180040000000     0.179000000000     0.021850000000    -0.190083   
N97      N      0.021570000000     0.515880000000     0.652360000000    -0.243717   
N98      N      0.021690000000     0.528140000000     0.727250000000    -0.244086   
N99      N      0.021120000000     0.537280000000     0.475550000000    -0.246399   
N100     N      0.021660000000     0.507260000000     0.903970000000    -0.244882   
N101     N      0.521440000000     0.507470000000     0.847110000000    -0.244047   
N102     N      0.521890000000     0.537510000000     0.775150000000    -0.244223   
N103     N      0.521240000000     0.536250000000     0.525090000000    -0.244694   
N104     N      0.521450000000     0.507330000000     0.597340000000    -0.243248   
N105     N      0.863560000000     0.364390000000     0.773360000000    -0.189839   
N106     N      0.927620000000     0.429130000000     0.795780000000    -0.189589   
N107     N      0.677820000000     0.364240000000     0.730200000000    -0.188769   
N108     N      0.613510000000     0.429050000000     0.707710000000    -0.188689   
N109     N      0.785820000000     0.272810000000     0.912720000000    -0.244215   
N110     N      0.756500000000     0.272120000000     0.840600000000    -0.243731   
N111     N      0.756520000000     0.273490000000     0.590590000000    -0.243867   
N112     N      0.785690000000     0.272740000000     0.662730000000    -0.244334   
N113     N      0.865070000000     0.364930000000     0.522580000000    -0.188563   
N114     N      0.930160000000     0.429330000000     0.544350000000    -0.187641   
N115     N      0.678190000000     0.365090000000     0.480090000000    -0.189457   
N116     N      0.613380000000     0.429040000000     0.457480000000    -0.189554   
N117     N      0.865050000000     0.679390000000     0.856510000000    -0.187117   
N118     N      0.930660000000     0.615150000000     0.835250000000    -0.187351   
N119     N      0.678370000000     0.678940000000     0.892900000000    -0.187945   
N120     N      0.613140000000     0.614990000000     0.914930000000    -0.189338   
N121     N      0.777530000000     0.772810000000     0.712050000000    -0.246066   
N122     N      0.764460000000     0.771730000000     0.786560000000    -0.244197   
N123     N      0.764570000000     0.773860000000     0.536530000000    -0.245458   
N124     N      0.777680000000     0.772710000000     0.462020000000    -0.244786   
N125     N      0.863040000000     0.679970000000     0.605510000000    -0.189088   
N126     N      0.927500000000     0.615450000000     0.583680000000    -0.190284   
N127     N      0.678080000000     0.680400000000     0.642660000000    -0.188185   
N128     N      0.613400000000     0.615870000000     0.664660000000    -0.189083   
N129     N      0.613590000000     0.930350000000     0.664870000000    -0.190064   
N130     N      0.678640000000     0.866530000000     0.642760000000    -0.188876   
N131     N      0.613490000000     0.116270000000     0.707530000000    -0.189597   
N132     N      0.678090000000     0.180460000000     0.730120000000    -0.189444   
N133     N      0.521450000000     0.038390000000     0.847200000000    -0.242661   
N134     N      0.521910000000     0.008450000000     0.775230000000    -0.245454   
N135     N      0.521240000000     0.008900000000     0.525040000000    -0.243284   
N136     N      0.521450000000     0.037980000000     0.597250000000    -0.24435    
N137     N      0.613060000000     0.930010000000     0.914730000000    -0.188202   
N138     N      0.677940000000     0.865380000000     0.892790000000    -0.18726    
N139     N      0.613340000000     0.116840000000     0.457680000000    -0.188521   
N140     N      0.677870000000     0.181410000000     0.480180000000    -0.18873    
N141     N      0.112920000000     0.615000000000     0.835140000000    -0.187728   
N142     N      0.178230000000     0.679410000000     0.856410000000    -0.187554   
N143     N      0.364440000000     0.678860000000     0.892810000000    -0.18847    
N144     N      0.429380000000     0.614760000000     0.914890000000    -0.189783   
N145     N      0.365010000000     0.865320000000     0.892680000000    -0.187725   
N146     N      0.429540000000     0.930160000000     0.914670000000    -0.18861    
N147     N      0.265460000000     0.772860000000     0.711950000000    -0.245393   
N148     N      0.278590000000     0.771710000000     0.786450000000    -0.244705   
N149     N      0.265450000000     0.772680000000     0.461940000000    -0.245438   
N150     N      0.278550000000     0.773890000000     0.536450000000    -0.244727   
N151     N      0.115270000000     0.615440000000     0.583620000000    -0.189955   
N152     N      0.179840000000     0.680020000000     0.605370000000    -0.188766   
N153     N      0.365150000000     0.680480000000     0.642680000000    -0.187833   
N154     N      0.430050000000     0.616030000000     0.664660000000    -0.188912   
N155     N      0.364630000000     0.866460000000     0.642810000000    -0.188474   
N156     N      0.429970000000     0.930120000000     0.664900000000    -0.189831   
N157     N      0.179550000000     0.363410000000     0.773190000000    -0.188127   
N158     N      0.115380000000     0.428210000000     0.795670000000    -0.189129   
N159     N      0.365050000000     0.365970000000     0.731800000000    -0.189141   
N160     N      0.429970000000     0.429660000000     0.708620000000    -0.189255   
N161     N      0.429790000000     0.115440000000     0.708390000000    -0.190273   
N162     N      0.364430000000     0.178320000000     0.731690000000    -0.189794   
N163     N      0.287010000000     0.272040000000     0.840800000000    -0.244172   
N164     N      0.256830000000     0.272750000000     0.912430000000    -0.244714   
N165     N      0.278500000000     0.273760000000     0.589200000000    -0.243096   
N166     N      0.265450000000     0.272700000000     0.664070000000    -0.243622   
N167     N      0.178040000000     0.366610000000     0.520800000000    -0.188995   
N168     N      0.112360000000     0.429870000000     0.543340000000    -0.188268   
N169     N      0.364850000000     0.364130000000     0.480210000000    -0.187745   
N170     N      0.429710000000     0.428200000000     0.457560000000    -0.18894    
N171     N      0.365210000000     0.182440000000     0.480270000000    -0.187111   
N172     N      0.429750000000     0.117690000000     0.457760000000    -0.187908   
N173     N      0.930320000000     0.116530000000     0.794410000000    -0.18756    
N174     N      0.865020000000     0.180710000000     0.772600000000    -0.188611   
N175     N      0.928080000000     0.930270000000     0.833630000000    -0.189349   
N176     N      0.863430000000     0.865630000000     0.855400000000    -0.18819    
N177     N      0.116030000000     0.930950000000     0.833670000000    -0.189633   
N178     N      0.180140000000     0.865890000000     0.855400000000    -0.188781   
N179     N      0.112600000000     0.117520000000     0.794260000000    -0.186904   
N180     N      0.177920000000     0.181830000000     0.772430000000    -0.186881   
N181     N      0.021840000000     0.009150000000     0.725730000000    -0.245527   
N182     N      0.021670000000     0.038100000000     0.653860000000    -0.245309   
N183     N      0.020680000000     0.016880000000     0.477220000000    -0.245164   
N184     N      0.021630000000     0.029750000000     0.902410000000    -0.243587   
N185     N      0.927360000000     0.116140000000     0.545940000000    -0.189844   
N186     N      0.863590000000     0.181160000000     0.523460000000    -0.189954   
N187     N      0.930280000000     0.930030000000     0.585330000000    -0.188039   
N188     N      0.864850000000     0.865920000000     0.606650000000    -0.188045   
N189     N      0.112220000000     0.929830000000     0.585160000000    -0.187802   
N190     N      0.177960000000     0.865870000000     0.606410000000    -0.187654   
N191     N      0.115490000000     0.115170000000     0.544840000000    -0.190356   
N192     N      0.180050000000     0.179000000000     0.521850000000    -0.190149   
O1       O      0.068550000000     0.081140000000     0.088210000000    -0.467237   
O2       O      0.976270000000     0.989610000000     0.100050000000    -0.485772   
O3       O      0.066410000000     0.989430000000     0.100120000000    -0.48602    
O4       O      0.975270000000     0.082130000000     0.088640000000    -0.467155   
O5       O      0.972960000000     0.056270000000     0.032000000000    -0.49989    
O6       O      0.066250000000     0.966400000000     0.042380000000    -0.46095    
O7       O      0.976000000000     0.966320000000     0.042370000000    -0.462601   
O8       O      0.068420000000     0.056510000000     0.031180000000    -0.502823   
O9       O      0.066970000000     0.080700000000     0.337300000000    -0.456786   
O10      O      0.974400000000     0.989530000000     0.348020000000    -0.494925   
O11      O      0.069890000000     0.990310000000     0.348030000000    -0.496117   
O12      O      0.976430000000     0.080300000000     0.337360000000    -0.458695   
O13      O      0.976350000000     0.056970000000     0.279730000000    -0.486832   
O14      O      0.068460000000     0.965420000000     0.291060000000    -0.467633   
O15      O      0.975340000000     0.965120000000     0.290920000000    -0.465554   
O16      O      0.066820000000     0.057660000000     0.279580000000    -0.485225   
O17      O      0.329220000000     0.228420000000     0.023590000000    -0.45634    
O18      O      0.238560000000     0.321550000000     0.034470000000    -0.49514    
O19      O      0.239320000000     0.225460000000     0.035210000000    -0.49932    
O20      O      0.329040000000     0.318580000000     0.023730000000    -0.460526   
O21      O      0.304550000000     0.318710000000     0.966410000000    -0.488343   
O22      O      0.213560000000     0.226280000000     0.978490000000    -0.467919   
O23      O      0.212380000000     0.319120000000     0.977900000000    -0.465858   
O24      O      0.304910000000     0.227790000000     0.966240000000    -0.486454   
O25      O      0.330790000000     0.225580000000     0.275010000000    -0.467481   
O26      O      0.239300000000     0.317470000000     0.287100000000    -0.488824   
O27      O      0.238690000000     0.226590000000     0.286740000000    -0.483599   
O28      O      0.331120000000     0.318450000000     0.275000000000    -0.463849   
O29      O      0.305040000000     0.320290000000     0.218420000000    -0.497792   
O30      O      0.214300000000     0.227730000000     0.229370000000    -0.458461   
O31      O      0.215210000000     0.317770000000     0.229680000000    -0.460649   
O32      O      0.304470000000     0.224090000000     0.218480000000    -0.499702   
O33      O      0.329980000000     0.818810000000     0.100220000000    -0.460783   
O34      O      0.239460000000     0.725710000000     0.090950000000    -0.492871   
O35      O      0.238720000000     0.821510000000     0.091670000000    -0.488819   
O36      O      0.330210000000     0.728460000000     0.100260000000    -0.457167   
O37      O      0.304900000000     0.725480000000     0.157110000000    -0.491733   
O38      O      0.213330000000     0.817940000000     0.148510000000    -0.459523   
O39      O      0.214420000000     0.727710000000     0.147930000000    -0.461288   
O40      O      0.304400000000     0.821370000000     0.157030000000    -0.493496   
O41      O      0.330240000000     0.817200000000     0.350260000000    -0.456637   
O42      O      0.238790000000     0.724060000000     0.341670000000    -0.488578   
O43      O      0.239510000000     0.819880000000     0.340960000000    -0.492888   
O44      O      0.330000000000     0.726720000000     0.350230000000    -0.460774   
O45      O      0.304390000000     0.724180000000     0.407030000000    -0.493322   
O46      O      0.214500000000     0.817970000000     0.397950000000    -0.461224   
O47      O      0.213360000000     0.727560000000     0.398500000000    -0.459121   
O48      O      0.304940000000     0.820060000000     0.407120000000    -0.491347   
O49      O      0.474530000000     0.966660000000     0.958100000000    -0.465813   
O50      O      0.566570000000     0.057700000000     0.971730000000    -0.491127   
O51      O      0.476340000000     0.058310000000     0.971840000000    -0.489185   
O52      O      0.567900000000     0.966480000000     0.958130000000    -0.464189   
O53      O      0.566300000000     0.989160000000     0.400400000000    -0.487719   
O54      O      0.474600000000     0.081050000000     0.414140000000    -0.463066   
O55      O      0.568020000000     0.080810000000     0.414130000000    -0.46461    
O56      O      0.476190000000     0.989340000000     0.400380000000    -0.489301   
O57      O      0.475290000000     0.966120000000     0.208280000000    -0.470552   
O58      O      0.567190000000     0.056880000000     0.221530000000    -0.49625    
O59      O      0.477430000000     0.057180000000     0.222040000000    -0.500062   
O60      O      0.568450000000     0.966110000000     0.208390000000    -0.472191   
O61      O      0.566580000000     0.989120000000     0.150710000000    -0.494737   
O62      O      0.474490000000     0.079790000000     0.164350000000    -0.469479   
O63      O      0.567870000000     0.080660000000     0.164060000000    -0.469077   
O64      O      0.476820000000     0.988920000000     0.150560000000    -0.494598   
O65      O      0.828640000000     0.727770000000     0.148060000000    -0.462721   
O66      O      0.738670000000     0.821270000000     0.157020000000    -0.495288   
O67      O      0.738220000000     0.725470000000     0.157110000000    -0.49361    
O68      O      0.829620000000     0.817940000000     0.148750000000    -0.46078    
O69      O      0.804310000000     0.821360000000     0.091870000000    -0.490759   
O70      O      0.712850000000     0.728490000000     0.100280000000    -0.458737   
O71      O      0.713140000000     0.818790000000     0.100190000000    -0.462502   
O72      O      0.803440000000     0.725650000000     0.091120000000    -0.494816   
O73      O      0.829690000000     0.727420000000     0.398610000000    -0.45749    
O74      O      0.738160000000     0.820210000000     0.407250000000    -0.489282   
O75      O      0.738530000000     0.724200000000     0.407170000000    -0.491216   
O76      O      0.828800000000     0.817830000000     0.397950000000    -0.459189   
O77      O      0.803710000000     0.819960000000     0.340990000000    -0.490575   
O78      O      0.713070000000     0.726710000000     0.350330000000    -0.459066   
O79      O      0.712850000000     0.817260000000     0.350400000000    -0.455293   
O80      O      0.804440000000     0.724060000000     0.341730000000    -0.486803   
O81      O      0.828770000000     0.319370000000     0.979410000000    -0.467174   
O82      O      0.737090000000     0.227980000000     0.966070000000    -0.492797   
O83      O      0.737390000000     0.318470000000     0.966200000000    -0.494847   
O84      O      0.827770000000     0.226160000000     0.979760000000    -0.469599   
O85      O      0.805150000000     0.228510000000     0.037460000000    -0.495577   
O86      O      0.714110000000     0.320070000000     0.023760000000    -0.468974   
O87      O      0.713940000000     0.226860000000     0.023650000000    -0.465367   
O88      O      0.805400000000     0.318930000000     0.036980000000    -0.489947   
O89      O      0.827710000000     0.319340000000     0.229700000000    -0.469441   
O90      O      0.737250000000     0.227110000000     0.216200000000    -0.494836   
O91      O      0.736980000000     0.317620000000     0.216080000000    -0.492887   
O92      O      0.828640000000     0.226200000000     0.229410000000    -0.467389   
O93      O      0.805330000000     0.226690000000     0.286990000000    -0.490128   
O94      O      0.713850000000     0.318740000000     0.273670000000    -0.465401   
O95      O      0.714010000000     0.225500000000     0.273770000000    -0.468779   
O96      O      0.805000000000     0.317150000000     0.287380000000    -0.49523    
O97      O      0.567790000000     0.578910000000     0.958300000000    -0.468521   
O98      O      0.476430000000     0.487320000000     0.971620000000    -0.493899   
O99      O      0.566500000000     0.487960000000     0.971510000000    -0.495907   
O100     O      0.474570000000     0.578670000000     0.958310000000    -0.470129   
O101     O      0.476240000000     0.555920000000     0.400600000000    -0.49469    
O102     O      0.567910000000     0.464710000000     0.413940000000    -0.468484   
O103     O      0.474690000000     0.464490000000     0.413940000000    -0.466671   
O104     O      0.566250000000     0.556110000000     0.400600000000    -0.492892   
O105     O      0.568480000000     0.579640000000     0.208190000000    -0.469084   
O106     O      0.477320000000     0.488290000000     0.222260000000    -0.495503   
O107     O      0.567250000000     0.488620000000     0.221730000000    -0.492239   
O108     O      0.475200000000     0.579630000000     0.208060000000    -0.467451   
O109     O      0.476700000000     0.556900000000     0.150340000000    -0.490747   
O110     O      0.568030000000     0.465020000000     0.164240000000    -0.465888   
O111     O      0.474490000000     0.465730000000     0.164570000000    -0.465986   
O112     O      0.566570000000     0.556810000000     0.150490000000    -0.490869   
O113     O      0.976350000000     0.465550000000     0.087250000000    -0.459745   
O114     O      0.069160000000     0.556120000000     0.098010000000    -0.497551   
O115     O      0.974020000000     0.556380000000     0.097930000000    -0.497976   
O116     O      0.067060000000     0.466080000000     0.086830000000    -0.460096   
O117     O      0.065850000000     0.489040000000     0.029120000000    -0.491433   
O118     O      0.974580000000     0.580950000000     0.040830000000    -0.470418   
O119     O      0.067670000000     0.580990000000     0.041010000000    -0.468975   
O120     O      0.975700000000     0.489280000000     0.029710000000    -0.487913   
O121     O      0.975260000000     0.463270000000     0.338590000000    -0.465917   
O122     O      0.067040000000     0.555400000000     0.350060000000    -0.486046   
O123     O      0.976640000000     0.555540000000     0.350150000000    -0.484183   
O124     O      0.068400000000     0.463090000000     0.338670000000    -0.46466    
O125     O      0.069210000000     0.487710000000     0.281620000000    -0.497075   
O126     O      0.976590000000     0.578560000000     0.292420000000    -0.459068   
O127     O      0.067120000000     0.578350000000     0.292310000000    -0.460953   
O128     O      0.973810000000     0.488520000000     0.281730000000    -0.498352   
O129     O      0.068550000000     0.081140000000     0.588210000000    -0.467202   
O130     O      0.976270000000     0.989610000000     0.600050000000    -0.485746   
O131     O      0.066410000000     0.989430000000     0.600120000000    -0.485997   
O132     O      0.975270000000     0.082140000000     0.588640000000    -0.467018   
O133     O      0.972970000000     0.056270000000     0.532000000000    -0.499893   
O134     O      0.066250000000     0.966400000000     0.542380000000    -0.460979   
O135     O      0.976000000000     0.966330000000     0.542370000000    -0.462806   
O136     O      0.068420000000     0.056510000000     0.531180000000    -0.502821   
O137     O      0.066970000000     0.080700000000     0.837300000000    -0.456893   
O138     O      0.974400000000     0.989530000000     0.848020000000    -0.494923   
O139     O      0.069890000000     0.990310000000     0.848030000000    -0.495982   
O140     O      0.976430000000     0.080300000000     0.837360000000    -0.458744   
O141     O      0.976350000000     0.056970000000     0.779740000000    -0.486988   
O142     O      0.068460000000     0.965420000000     0.791050000000    -0.467607   
O143     O      0.975340000000     0.965120000000     0.790920000000    -0.465555   
O144     O      0.066820000000     0.057660000000     0.779580000000    -0.485166   
O145     O      0.329230000000     0.228420000000     0.523600000000    -0.456278   
O146     O      0.238560000000     0.321550000000     0.534470000000    -0.495237   
O147     O      0.239330000000     0.225460000000     0.535210000000    -0.499537   
O148     O      0.329050000000     0.318580000000     0.523740000000    -0.460438   
O149     O      0.304550000000     0.318720000000     0.466420000000    -0.488314   
O150     O      0.213560000000     0.226280000000     0.478500000000    -0.467911   
O151     O      0.212380000000     0.319120000000     0.477910000000    -0.465962   
O152     O      0.304910000000     0.227790000000     0.466250000000    -0.486507   
O153     O      0.330790000000     0.225580000000     0.775020000000    -0.467377   
O154     O      0.239300000000     0.317470000000     0.787110000000    -0.488824   
O155     O      0.238700000000     0.226590000000     0.786740000000    -0.483624   
O156     O      0.331120000000     0.318450000000     0.775000000000    -0.464001   
O157     O      0.305040000000     0.320290000000     0.718420000000    -0.497645   
O158     O      0.214310000000     0.227730000000     0.729380000000    -0.458647   
O159     O      0.215220000000     0.317770000000     0.729690000000    -0.460731   
O160     O      0.304470000000     0.224090000000     0.718480000000    -0.499563   
O161     O      0.329980000000     0.818810000000     0.600220000000    -0.460785   
O162     O      0.239460000000     0.725710000000     0.590950000000    -0.492898   
O163     O      0.238720000000     0.821510000000     0.591670000000    -0.488833   
O164     O      0.330210000000     0.728460000000     0.600260000000    -0.457143   
O165     O      0.304890000000     0.725480000000     0.657110000000    -0.491663   
O166     O      0.213330000000     0.817940000000     0.648510000000    -0.459604   
O167     O      0.214420000000     0.727710000000     0.647930000000    -0.461375   
O168     O      0.304400000000     0.821370000000     0.657030000000    -0.493456   
O169     O      0.330240000000     0.817200000000     0.850260000000    -0.456679   
O170     O      0.238790000000     0.724060000000     0.841670000000    -0.488466   
O171     O      0.239510000000     0.819880000000     0.840960000000    -0.492962   
O172     O      0.330000000000     0.726730000000     0.850230000000    -0.460754   
O173     O      0.304390000000     0.724180000000     0.907030000000    -0.493401   
O174     O      0.214500000000     0.817970000000     0.897950000000    -0.461182   
O175     O      0.213360000000     0.727560000000     0.898500000000    -0.459129   
O176     O      0.304940000000     0.820050000000     0.907120000000    -0.491327   
O177     O      0.474530000000     0.966660000000     0.458110000000    -0.465773   
O178     O      0.566570000000     0.057690000000     0.471730000000    -0.491155   
O179     O      0.476340000000     0.058300000000     0.471840000000    -0.489352   
O180     O      0.567890000000     0.966480000000     0.458130000000    -0.46432    
O181     O      0.566300000000     0.989160000000     0.900400000000    -0.487707   
O182     O      0.474600000000     0.081050000000     0.914130000000    -0.463036   
O183     O      0.568020000000     0.080810000000     0.914130000000    -0.464749   
O184     O      0.476190000000     0.989340000000     0.900380000000    -0.489349   
O185     O      0.475290000000     0.966120000000     0.708280000000    -0.470578   
O186     O      0.567190000000     0.056870000000     0.721530000000    -0.496464   
O187     O      0.477430000000     0.057180000000     0.722050000000    -0.499935   
O188     O      0.568450000000     0.966110000000     0.708390000000    -0.472183   
O189     O      0.566570000000     0.989120000000     0.650710000000    -0.494765   
O190     O      0.474490000000     0.079790000000     0.664350000000    -0.469435   
O191     O      0.567870000000     0.080660000000     0.664070000000    -0.469111   
O192     O      0.476820000000     0.988920000000     0.650560000000    -0.494555   
O193     O      0.828650000000     0.727770000000     0.648060000000    -0.462723   
O194     O      0.738670000000     0.821270000000     0.657020000000    -0.49523    
O195     O      0.738230000000     0.725470000000     0.657120000000    -0.493384   
O196     O      0.829620000000     0.817940000000     0.648750000000    -0.460858   
O197     O      0.804310000000     0.821370000000     0.591870000000    -0.49072    
O198     O      0.712850000000     0.728490000000     0.600280000000    -0.45863    
O199     O      0.713140000000     0.818790000000     0.600190000000    -0.46249    
O200     O      0.803440000000     0.725650000000     0.591120000000    -0.494823   
O201     O      0.829690000000     0.727420000000     0.898610000000    -0.457484   
O202     O      0.738160000000     0.820210000000     0.907250000000    -0.489344   
O203     O      0.738520000000     0.724200000000     0.907170000000    -0.491239   
O204     O      0.828800000000     0.817830000000     0.897950000000    -0.459176   
O205     O      0.803710000000     0.819960000000     0.840990000000    -0.490561   
O206     O      0.713070000000     0.726710000000     0.850330000000    -0.459085   
O207     O      0.712850000000     0.817260000000     0.850400000000    -0.45517    
O208     O      0.804440000000     0.724050000000     0.841730000000    -0.486741   
O209     O      0.828770000000     0.319360000000     0.479410000000    -0.467206   
O210     O      0.737090000000     0.227970000000     0.466080000000    -0.492986   
O211     O      0.737390000000     0.318470000000     0.466210000000    -0.495001   
O212     O      0.827770000000     0.226170000000     0.479760000000    -0.469465   
O213     O      0.805140000000     0.228510000000     0.537460000000    -0.495571   
O214     O      0.714100000000     0.320070000000     0.523770000000    -0.469021   
O215     O      0.713940000000     0.226860000000     0.523660000000    -0.465352   
O216     O      0.805400000000     0.318930000000     0.536980000000    -0.489962   
O217     O      0.827710000000     0.319340000000     0.729710000000    -0.469446   
O218     O      0.737240000000     0.227110000000     0.716210000000    -0.494871   
O219     O      0.736970000000     0.317620000000     0.716080000000    -0.492788   
O220     O      0.828640000000     0.226200000000     0.729420000000    -0.467354   
O221     O      0.805330000000     0.226690000000     0.787000000000    -0.490089   
O222     O      0.713840000000     0.318740000000     0.773670000000    -0.465456   
O223     O      0.714010000000     0.225500000000     0.773780000000    -0.468678   
O224     O      0.805000000000     0.317150000000     0.787390000000    -0.495279   
O225     O      0.567780000000     0.578910000000     0.458300000000    -0.468553   
O226     O      0.476430000000     0.487320000000     0.471620000000    -0.494167   
O227     O      0.566500000000     0.487960000000     0.471510000000    -0.496011   
O228     O      0.474580000000     0.578670000000     0.458310000000    -0.470229   
O229     O      0.476240000000     0.555920000000     0.900590000000    -0.49448    
O230     O      0.567910000000     0.464710000000     0.913930000000    -0.468383   
O231     O      0.474690000000     0.464480000000     0.913930000000    -0.466482   
O232     O      0.566250000000     0.556110000000     0.900600000000    -0.49297    
O233     O      0.568480000000     0.579640000000     0.708190000000    -0.469088   
O234     O      0.477330000000     0.488290000000     0.722270000000    -0.495387   
O235     O      0.567250000000     0.488620000000     0.721730000000    -0.492237   
O236     O      0.475200000000     0.579630000000     0.708060000000    -0.467463   
O237     O      0.476700000000     0.556910000000     0.650340000000    -0.490674   
O238     O      0.568030000000     0.465020000000     0.664240000000    -0.465867   
O239     O      0.474490000000     0.465730000000     0.664570000000    -0.465918   
O240     O      0.566570000000     0.556810000000     0.650490000000    -0.490849   
O241     O      0.976350000000     0.465550000000     0.587250000000    -0.459719   
O242     O      0.069160000000     0.556120000000     0.598010000000    -0.497555   
O243     O      0.974020000000     0.556380000000     0.597930000000    -0.498054   
O244     O      0.067060000000     0.466080000000     0.586840000000    -0.459957   
O245     O      0.065850000000     0.489040000000     0.529120000000    -0.49136    
O246     O      0.974580000000     0.580950000000     0.540830000000    -0.470303   
O247     O      0.067670000000     0.580990000000     0.541010000000    -0.468969   
O248     O      0.975700000000     0.489280000000     0.529710000000    -0.487824   
O249     O      0.975270000000     0.463270000000     0.838590000000    -0.465939   
O250     O      0.067040000000     0.555400000000     0.850060000000    -0.486073   
O251     O      0.976640000000     0.555540000000     0.850150000000    -0.484212   
O252     O      0.068400000000     0.463100000000     0.838670000000    -0.464737   
O253     O      0.069210000000     0.487710000000     0.781620000000    -0.497154   
O254     O      0.976590000000     0.578560000000     0.792420000000    -0.459024   
O255     O      0.067120000000     0.578340000000     0.792310000000    -0.461083   
O256     O      0.973810000000     0.488520000000     0.781730000000    -0.498272   


