data_structure

_audit_creation_method RASPA-1.0
_audit_creation_date 2023-6-5
_audit_author_name 'Poobodin Mano'

_cell_length_a    35.5744
_cell_length_b    35.5716
_cell_length_c    21.1966
_cell_angle_alpha 89.9815
_cell_angle_beta  90.0186
_cell_angle_gamma 119.979
_cell_volume      23234.3

_symmetry_cell_setting          triclinic
_symmetry_space_group_name_Hall 'P 1'
_symmetry_space_group_name_H-M  'P 1'
_symmetry_Int_Tables_number     1

_symmetry_equiv_pos_as_xyz 'x,y,z'

loop_
_atom_site_label
_atom_site_type_symbol
_atom_site_fract_x
_atom_site_fract_y
_atom_site_fract_z
_atom_site_charge
C1       C      0.930490000000     0.715790000000     0.687310000000     0.404133   
C2       C      0.764740000000     0.638230000000     0.614990000000     0.403887   
C3       C      0.826170000000     0.674820000000     0.772010000000     0.405058   
C4       C      0.869070000000     0.679210000000     0.530280000000     0.405233   
C5       C      0.098060000000     0.799540000000     0.781700000000     0.404114   
C6       C      0.263810000000     0.887660000000     0.854040000000     0.404045   
C7       C      0.202390000000     0.862850000000     0.697000000000     0.405269   
C8       C      0.159490000000     0.824350000000     0.938740000000     0.404786   
C9       C      0.431390000000     0.971420000000     0.948400000000     0.403748   
C10      C      0.597140000000     0.048990000000     0.020710000000     0.404023   
C11      C      0.535710000000     0.012390000000     0.863690000000     0.405141   
C12      C      0.492810000000     0.008010000000     0.105420000000     0.404918   
C13      C      0.263800000000     0.382420000000     0.354090000000     0.404014   
C14      C      0.098050000000     0.304790000000     0.281750000000     0.404067   
C15      C      0.159470000000     0.341410000000     0.438790000000     0.405202   
C16      C      0.202380000000     0.345810000000     0.197060000000     0.40531    
C17      C      0.930490000000     0.220970000000     0.187340000000     0.403897   
C18      C      0.764740000000     0.132790000000     0.115010000000     0.403907   
C19      C      0.826170000000     0.157640000000     0.272040000000     0.405162   
C20      C      0.869070000000     0.196130000000     0.030300000000     0.405759   
C21      C      0.597140000000     0.554430000000     0.520730000000     0.403945   
C22      C      0.431380000000     0.466240000000     0.448430000000     0.404046   
C23      C      0.492810000000     0.491090000000     0.605450000000     0.405241   
C24      C      0.535690000000     0.529580000000     0.363710000000     0.405172   
C25      C      0.136870000000     0.382420000000     0.854050000000     0.404017   
C26      C      0.225020000000     0.304800000000     0.781790000000     0.404038   
C27      C      0.200210000000     0.341400000000     0.938800000000     0.404712   
C28      C      0.161690000000     0.345820000000     0.697040000000     0.405128   
C29      C      0.386320000000     0.132780000000     0.615090000000     0.404022   
C30      C      0.308770000000     0.220990000000     0.687340000000     0.404106   
C31      C      0.345330000000     0.196150000000     0.530330000000     0.405203   
C32      C      0.349750000000     0.157630000000     0.772090000000     0.405176   
C33      C      0.053130000000     0.466230000000     0.948480000000     0.404043   
C34      C      0.975570000000     0.554440000000     0.020710000000     0.403707   
C35      C      0.012150000000     0.529590000000     0.863720000000     0.405561   
C36      C      0.016560000000     0.491080000000     0.105480000000     0.405413   
C37      C      0.719730000000     0.799530000000     0.281680000000     0.40407    
C38      C      0.642110000000     0.887680000000     0.353950000000     0.404082   
C39      C      0.678700000000     0.862860000000     0.196930000000     0.405111   
C40      C      0.683130000000     0.824340000000     0.438690000000     0.405217   
C41      C      0.803550000000     0.715790000000     0.187260000000     0.403984   
C42      C      0.891770000000     0.638230000000     0.115040000000     0.404074   
C43      C      0.866910000000     0.674810000000     0.272030000000     0.405179   
C44      C      0.828400000000     0.679220000000     0.030260000000     0.405618   
C45      C      0.558300000000     0.971420000000     0.448420000000     0.404004   
C46      C      0.470100000000     0.048990000000     0.520680000000     0.404037   
C47      C      0.494950000000     0.012410000000     0.363670000000     0.405207   
C48      C      0.533470000000     0.007990000000     0.605430000000     0.405179   
C49      C      0.308760000000     0.094060000000     0.187360000000     0.404026   
C50      C      0.386320000000     0.259820000000     0.115070000000     0.404058   
C51      C      0.349730000000     0.198380000000     0.272080000000     0.405143   
C52      C      0.345350000000     0.155490000000     0.030350000000     0.405605   
C53      C      0.470110000000     0.427410000000     0.020740000000     0.404099   
C54      C      0.558290000000     0.593160000000     0.948410000000     0.403711   
C55      C      0.533450000000     0.531740000000     0.105450000000     0.40515    
C56      C      0.494960000000     0.488840000000     0.863710000000     0.405048   
C57      C      0.225010000000     0.926480000000     0.281710000000     0.404075   
C58      C      0.136880000000     0.760730000000     0.354030000000     0.403958   
C59      C      0.161700000000     0.822160000000     0.197000000000     0.405183   
C60      C      0.200190000000     0.865060000000     0.438740000000     0.405267   
C61      C      0.053130000000     0.593170000000     0.448440000000     0.404033   
C62      C      0.975570000000     0.427410000000     0.520750000000     0.403495   
C63      C      0.012150000000     0.488840000000     0.363730000000     0.405487   
C64      C      0.016550000000     0.531740000000     0.605460000000     0.405333   
C65      C      0.891760000000     0.259810000000     0.615030000000     0.4039     
C66      C      0.803560000000     0.094050000000     0.687310000000     0.404015   
C67      C      0.828410000000     0.155490000000     0.530300000000     0.405159   
C68      C      0.866900000000     0.198360000000     0.772050000000     0.405337   
C69      C      0.719730000000     0.926470000000     0.781660000000     0.403972   
C70      C      0.642100000000     0.760720000000     0.853980000000     0.403925   
C71      C      0.678720000000     0.822140000000     0.696950000000     0.405117   
C72      C      0.683110000000     0.865050000000     0.938680000000     0.404561   
C73      C      0.738450000000     0.031460000000     0.722350000000     0.0309101  
C74      C      0.804550000000     0.031080000000     0.721860000000     0.0300861  
C75      C      0.783700000000     0.989390000000     0.747140000000     0.0299741  
C76      C      0.717270000000     0.989120000000     0.746560000000     0.0308371  
C77      C      0.911600000000     0.364480000000     0.555250000000     0.0299258  
C78      C      0.978030000000     0.364760000000     0.555820000000     0.030529   
C79      C      0.956860000000     0.322420000000     0.580000000000     0.0310015  
C80      C      0.890750000000     0.322780000000     0.580500000000     0.0300768  
C81      C      0.137920000000     0.697790000000     0.388610000000     0.0300176  
C82      C      0.071800000000     0.698120000000     0.389110000000     0.0309838  
C83      C      0.050640000000     0.655790000000     0.413340000000     0.0309337  
C84      C      0.117080000000     0.656100000000     0.413910000000     0.030101   
C85      C      0.557290000000     0.656120000000     0.913820000000     0.0299508  
C86      C      0.623390000000     0.655750000000     0.913330000000     0.0308783  
C87      C      0.644560000000     0.698080000000     0.889100000000     0.0309427  
C88      C      0.578140000000     0.697800000000     0.888520000000     0.0300251  
C89      C      0.290100000000     0.989100000000     0.246650000000     0.0309388  
C90      C      0.223980000000     0.989430000000     0.247150000000     0.0300843  
C91      C      0.244810000000     0.031120000000     0.221880000000     0.0300585  
C92      C      0.311260000000     0.031430000000     0.222450000000     0.0308994  
C93      C      0.471130000000     0.364450000000     0.055300000000     0.0300308  
C94      C      0.405010000000     0.364800000000     0.055790000000     0.0309743  
C95      C      0.383840000000     0.322460000000     0.079980000000     0.0309164  
C96      C      0.450280000000     0.322760000000     0.080560000000     0.0301293  
C97      C      0.643290000000     0.795810000000     0.533340000000     0.0305123  
C98      C      0.719850000000     0.835470000000     0.536500000000     0.0312511  
C99      C      0.718550000000     0.833420000000     0.602310000000     0.030593   
C100     C      0.642000000000     0.796570000000     0.599150000000     0.0313073  
C101     C      0.643280000000     0.853770000000     0.033310000000     0.0305718  
C102     C      0.719830000000     0.890630000000     0.036480000000     0.03139    
C103     C      0.718540000000     0.891390000000     0.102290000000     0.0305638  
C104     C      0.641990000000     0.851730000000     0.099120000000     0.0313802  
C105     C      0.717270000000     0.734440000000     0.246580000000     0.0309218  
C106     C      0.783690000000     0.800570000000     0.247120000000     0.0300492  
C107     C      0.804540000000     0.779740000000     0.221820000000     0.0300625  
C108     C      0.738450000000     0.713290000000     0.222350000000     0.0309512  
C109     C      0.644570000000     0.952760000000     0.389060000000     0.0309589  
C110     C      0.578150000000     0.886640000000     0.388520000000     0.0300898  
C111     C      0.557300000000     0.907470000000     0.413840000000     0.0300209  
C112     C      0.623400000000     0.973920000000     0.413310000000     0.0308867  
C113     C      0.975430000000     0.518450000000     0.765910000000     0.0311213  
C114     C      0.051980000000     0.558100000000     0.769070000000     0.030574   
C115     C      0.053270000000     0.557330000000     0.703260000000     0.03132    
C116     C      0.976720000000     0.520490000000     0.700090000000     0.0303427  
C117     C      0.053280000000     0.502200000000     0.203280000000     0.0313536  
C118     C      0.976730000000     0.462530000000     0.200130000000     0.0303557  
C119     C      0.975440000000     0.463280000000     0.265940000000     0.0311472  
C120     C      0.051990000000     0.500150000000     0.269090000000     0.0305959  
C121     C      0.978040000000     0.619540000000     0.055770000000     0.03058    
C122     C      0.911610000000     0.553430000000     0.055240000000     0.0300305  
C123     C      0.890760000000     0.574280000000     0.080510000000     0.0301037  
C124     C      0.956870000000     0.640720000000     0.079980000000     0.0310857  
C125     C      0.309920000000     0.129120000000     0.866740000000     0.0305325  
C126     C      0.386470000000     0.168770000000     0.869900000000     0.0312665  
C127     C      0.385180000000     0.166740000000     0.935710000000     0.0304532  
C128     C      0.308630000000     0.129900000000     0.932550000000     0.0312631  
C129     C      0.308610000000     0.185020000000     0.432530000000     0.0312846  
C130     C      0.385160000000     0.224690000000     0.435690000000     0.0305952  
C131     C      0.386450000000     0.223950000000     0.369880000000     0.0312663  
C132     C      0.309900000000     0.187080000000     0.366720000000     0.03058    
C133     C      0.383840000000     0.067680000000     0.580000000000     0.0309243  
C134     C      0.450270000000     0.133790000000     0.580530000000     0.0300494  
C135     C      0.471110000000     0.112940000000     0.555240000000     0.0300605  
C136     C      0.405010000000     0.046510000000     0.555770000000     0.0309597  
C137     C      0.137910000000     0.446390000000     0.888620000000     0.0299517  
C138     C      0.071790000000     0.379960000000     0.889160000000     0.0309119  
C139     C      0.050640000000     0.401130000000     0.913390000000     0.0309243  
C140     C      0.117080000000     0.467230000000     0.913920000000     0.0300177  
C141     C      0.290100000000     0.307260000000     0.746680000000     0.0309193  
C142     C      0.223990000000     0.240830000000     0.747230000000     0.03005    
C143     C      0.244820000000     0.219980000000     0.721910000000     0.0300096  
C144     C      0.311260000000     0.286090000000     0.722450000000     0.0308816  
C145     C      0.506120000000     0.463260000000     0.765940000000     0.0312574  
C146     C      0.466440000000     0.500170000000     0.769030000000     0.0305273  
C147     C      0.467210000000     0.502230000000     0.703220000000     0.0313108  
C148     C      0.504090000000     0.462520000000     0.700130000000     0.0304856  
C149     C      0.562010000000     0.520450000000     0.200120000000     0.0305649  
C150     C      0.522310000000     0.557340000000     0.203220000000     0.0312645  
C151     C      0.524370000000     0.558100000000     0.269030000000     0.0305813  
C152     C      0.561270000000     0.518420000000     0.265940000000     0.0313135  
C153     C      0.857790000000     0.224690000000     0.935630000000     0.0305463  
C154     C      0.894660000000     0.184980000000     0.932530000000     0.0311517  
C155     C      0.895420000000     0.187040000000     0.866720000000     0.030523   
C156     C      0.855750000000     0.223950000000     0.869820000000     0.031228   
C157     C      0.800590000000     0.168800000000     0.369810000000     0.0312675  
C158     C      0.837490000000     0.129110000000     0.366720000000     0.0305337  
C159     C      0.839550000000     0.129880000000     0.432530000000     0.03127    
C160     C      0.799850000000     0.166770000000     0.435620000000     0.0305423  
C161     C      0.172810000000     0.382540000000     0.599230000000     0.0312889  
C162     C      0.133150000000     0.305980000000     0.602400000000     0.0305549  
C163     C      0.133900000000     0.304690000000     0.536590000000     0.031327   
C164     C      0.170760000000     0.381250000000     0.533420000000     0.0305648  
C165     C      0.191110000000     0.305970000000     0.102430000000     0.0305838  
C166     C      0.227960000000     0.382530000000     0.099260000000     0.031306   
C167     C      0.228730000000     0.381230000000     0.033450000000     0.0306887  
C168     C      0.189070000000     0.304680000000     0.036610000000     0.0313957  
C169     C      0.035130000000     0.240820000000     0.247220000000     0.0304393  
C170     C      0.035410000000     0.307250000000     0.246630000000     0.031422   
C171     C      0.993080000000     0.286080000000     0.222410000000     0.0304911  
C172     C      0.993440000000     0.219970000000     0.221930000000     0.0296624  
C173     C      0.326440000000     0.379960000000     0.389190000000     0.0309322  
C174     C      0.326720000000     0.446390000000     0.388610000000     0.0300539  
C175     C      0.368420000000     0.467250000000     0.413880000000     0.0300699  
C176     C      0.368780000000     0.401140000000     0.413390000000     0.0309134  
C177     C      0.562010000000     0.047820000000     0.700080000000     0.0304841  
C178     C      0.522340000000     0.971260000000     0.703240000000     0.0313055  
C179     C      0.524400000000     0.972550000000     0.769050000000     0.0304713  
C180     C      0.561270000000     0.049110000000     0.765890000000     0.0313726  
C181     C      0.504060000000     0.047840000000     0.200050000000     0.0305294  
C182     C      0.467220000000     0.971280000000     0.203210000000     0.0313059  
C183     C      0.466450000000     0.972570000000     0.269020000000     0.0305503  
C184     C      0.506090000000     0.049130000000     0.265860000000     0.0313423  
C185     C      0.660080000000     0.112950000000     0.055200000000     0.0301278  
C186     C      0.659780000000     0.046510000000     0.055780000000     0.0309558  
C187     C      0.702120000000     0.067680000000     0.079970000000     0.0309166  
C188     C      0.701780000000     0.133800000000     0.080460000000     0.0301071  
C189     C      0.191090000000     0.891400000000     0.602320000000     0.0304833  
C190     C      0.227970000000     0.851700000000     0.599230000000     0.0313164  
C191     C      0.228730000000     0.853750000000     0.533420000000     0.0305589  
C192     C      0.189050000000     0.890640000000     0.536510000000     0.0314042  
C193     C      0.170790000000     0.795810000000     0.033410000000     0.0306088  
C194     C      0.133910000000     0.835510000000     0.036510000000     0.0314158  
C195     C      0.133150000000     0.833460000000     0.102330000000     0.0305929  
C196     C      0.172840000000     0.796570000000     0.099230000000     0.0313813  
C197     C      0.368450000000     0.907460000000     0.913880000000     0.0299597  
C198     C      0.368760000000     0.973910000000     0.913300000000     0.030845   
C199     C      0.326430000000     0.952750000000     0.889100000000     0.0309039  
C200     C      0.326760000000     0.886620000000     0.888600000000     0.0299924  
C201     C      0.800610000000     0.638100000000     0.869810000000     0.0312657  
C202     C      0.837470000000     0.714660000000     0.866650000000     0.0304892  
C203     C      0.839520000000     0.715950000000     0.932460000000     0.031248   
C204     C      0.799860000000     0.639390000000     0.935620000000     0.0304894  
C205     C      0.857810000000     0.639380000000     0.435650000000     0.0305609  
C206     C      0.894650000000     0.715940000000     0.432490000000     0.0313077  
C207     C      0.895420000000     0.714650000000     0.366680000000     0.030509   
C208     C      0.855780000000     0.638080000000     0.369840000000     0.0312212  
C209     C      0.702100000000     0.640710000000     0.579930000000     0.0308975  
C210     C      0.701800000000     0.574270000000     0.580500000000     0.030095   
C211     C      0.660100000000     0.553420000000     0.555260000000     0.030004   
C212     C      0.659750000000     0.619540000000     0.555750000000     0.030922   
C213     C      0.993430000000     0.779750000000     0.721840000000     0.0295676  
C214     C      0.993120000000     0.713300000000     0.722410000000     0.0305021  
C215     C      0.035450000000     0.734450000000     0.746630000000     0.0312926  
C216     C      0.035120000000     0.800580000000     0.747120000000     0.0304315  
Cu1      Cu     0.850500000000     0.712910000000     0.645520000000     0.848956   
Cu2      Cu     0.844740000000     0.641120000000     0.656770000000     0.849028   
Cu3      Cu     0.178050000000     0.876610000000     0.823450000000     0.848986   
Cu4      Cu     0.183830000000     0.810590000000     0.812280000000     0.848977   
Cu5      Cu     0.517140000000     0.046090000000     0.978930000000     0.848213   
Cu6      Cu     0.511390000000     0.974310000000     0.990180000000     0.848156   
Cu7      Cu     0.183790000000     0.379490000000     0.312290000000     0.849081   
Cu8      Cu     0.178060000000     0.307720000000     0.323550000000     0.848905   
Cu9      Cu     0.844710000000     0.209880000000     0.156750000000     0.849101   
Cu10     Cu     0.850520000000     0.143880000000     0.145590000000     0.849042   
Cu11     Cu     0.511350000000     0.543340000000     0.490160000000     0.848916   
Cu12     Cu     0.517160000000     0.477340000000     0.479000000000     0.849107   
Cu13     Cu     0.147950000000     0.307720000000     0.823530000000     0.848997   
Cu14     Cu     0.213940000000     0.379490000000     0.812310000000     0.849211   
Cu15     Cu     0.311660000000     0.143890000000     0.645610000000     0.849096   
Cu16     Cu     0.383430000000     0.209870000000     0.656820000000     0.849114   
Cu17     Cu     0.978460000000     0.477350000000     0.978990000000     0.848084   
Cu18     Cu     0.050240000000     0.543330000000     0.990210000000     0.848633   
Cu19     Cu     0.645040000000     0.810600000000     0.312200000000     0.849284   
Cu20     Cu     0.716800000000     0.876600000000     0.323420000000     0.849072   
Cu21     Cu     0.814670000000     0.641120000000     0.156750000000     0.849358   
Cu22     Cu     0.880650000000     0.712900000000     0.145540000000     0.849159   
Cu23     Cu     0.481210000000     0.974310000000     0.490160000000     0.848933   
Cu24     Cu     0.547190000000     0.046090000000     0.478950000000     0.849269   
Cu25     Cu     0.383430000000     0.179820000000     0.156840000000     0.849158   
Cu26     Cu     0.311650000000     0.174060000000     0.145590000000     0.849155   
Cu27     Cu     0.547200000000     0.507380000000     0.979000000000     0.848178   
Cu28     Cu     0.481210000000     0.513190000000     0.990170000000     0.84809    
Cu29     Cu     0.213950000000     0.840710000000     0.312280000000     0.84911    
Cu30     Cu     0.147940000000     0.846500000000     0.323460000000     0.849292   
Cu31     Cu     0.050240000000     0.513170000000     0.490230000000     0.849173   
Cu32     Cu     0.978460000000     0.507410000000     0.478970000000     0.848675   
Cu33     Cu     0.880650000000     0.174020000000     0.645590000000     0.848968   
Cu34     Cu     0.814660000000     0.179840000000     0.656750000000     0.849065   
Cu35     Cu     0.716800000000     0.846460000000     0.823450000000     0.848898   
Cu36     Cu     0.645030000000     0.840730000000     0.812180000000     0.848976   
H1       H      0.719340000000     0.046950000000     0.713540000000     0.0399782  
H2       H      0.839130000000     0.046150000000     0.713130000000     0.0379017  
H3       H      0.803180000000     0.974280000000     0.755910000000     0.0379197  
H4       H      0.682680000000     0.973670000000     0.755340000000     0.0399899  
H5       H      0.892120000000     0.379580000000     0.546480000000     0.0379813  
H6       H      0.012630000000     0.380220000000     0.547040000000     0.0402833  
H7       H      0.975980000000     0.306930000000     0.588810000000     0.0398975  
H8       H      0.856170000000     0.307700000000     0.589230000000     0.0379356  
H9       H      0.172500000000     0.712870000000     0.379860000000     0.0379707  
H10      H      0.052670000000     0.713600000000     0.380290000000     0.0400455  
H11      H      0.016050000000     0.640330000000     0.422130000000     0.0400712  
H12      H      0.136580000000     0.641000000000     0.422680000000     0.0379513  
H13      H      0.522710000000     0.641050000000     0.922570000000     0.0379146  
H14      H      0.642510000000     0.640260000000     0.922160000000     0.0399473  
H15      H      0.679160000000     0.713530000000     0.880310000000     0.0399472  
H16      H      0.558650000000     0.712910000000     0.879740000000     0.0379005  
H17      H      0.309230000000     0.973620000000     0.255470000000     0.0400231  
H18      H      0.189400000000     0.974340000000     0.255900000000     0.0379856  
H19      H      0.225320000000     0.046220000000     0.213100000000     0.0380056  
H20      H      0.345850000000     0.046900000000     0.213660000000     0.0400536  
H21      H      0.505700000000     0.379530000000     0.046560000000     0.0380549  
H22      H      0.385890000000     0.380290000000     0.046970000000     0.0400759  
H23      H      0.349250000000     0.307000000000     0.088760000000     0.0400578  
H24      H      0.469770000000     0.307660000000     0.089330000000     0.0380072  
H25      H      0.612730000000     0.780820000000     0.507960000000     0.0370492  
H26      H      0.751270000000     0.851940000000     0.513480000000     0.0364499  
H27      H      0.749120000000     0.849000000000     0.627680000000     0.0370011  
H28      H      0.610580000000     0.781630000000     0.622180000000     0.0364564  
H29      H      0.612710000000     0.838200000000     0.007940000000     0.03722    
H30      H      0.751250000000     0.905550000000     0.013450000000     0.0366092  
H31      H      0.749110000000     0.906370000000     0.127650000000     0.0370623  
H32      H      0.610570000000     0.835260000000     0.122150000000     0.0364986  
H33      H      0.682680000000     0.715320000000     0.255380000000     0.0400331  
H34      H      0.803170000000     0.835150000000     0.255890000000     0.0379643  
H35      H      0.839120000000     0.799230000000     0.213050000000     0.0379715  
H36      H      0.719340000000     0.678700000000     0.213540000000     0.0400289  
H37      H      0.679160000000     0.971890000000     0.380250000000     0.0399916  
H38      H      0.558670000000     0.852060000000     0.379750000000     0.0379548  
H39      H      0.522720000000     0.887980000000     0.422610000000     0.0379769  
H40      H      0.642510000000     0.008510000000     0.422120000000     0.0400213  
H41      H      0.944010000000     0.501990000000     0.788940000000     0.0364166  
H42      H      0.082550000000     0.573090000000     0.794440000000     0.0370078  
H43      H      0.084690000000     0.572250000000     0.680230000000     0.0364581  
H44      H      0.946150000000     0.504910000000     0.674730000000     0.0370329  
H45      H      0.084700000000     0.518680000000     0.180250000000     0.0365131  
H46      H      0.946160000000     0.447540000000     0.174760000000     0.0370871  
H47      H      0.944020000000     0.448340000000     0.288970000000     0.0364758  
H48      H      0.082560000000     0.515720000000     0.294460000000     0.0370482  
H49      H      0.012630000000     0.638670000000     0.046970000000     0.0403405  
H50      H      0.892130000000     0.518850000000     0.046480000000     0.0380461  
H51      H      0.856190000000     0.554790000000     0.089260000000     0.0379957  
H52      H      0.975990000000     0.675310000000     0.088770000000     0.0399229  
H53      H      0.279350000000     0.114130000000     0.841370000000     0.0370061  
H54      H      0.417890000000     0.185230000000     0.846870000000     0.0364183  
H55      H      0.415750000000     0.182310000000     0.961080000000     0.0368832  
H56      H      0.277210000000     0.114980000000     0.955580000000     0.0363092  
H57      H      0.277190000000     0.168540000000     0.455560000000     0.03647    
H58      H      0.415730000000     0.239680000000     0.461060000000     0.0370254  
H59      H      0.417870000000     0.238890000000     0.346850000000     0.0364773  
H60      H      0.279330000000     0.171500000000     0.341350000000     0.0370384  
H61      H      0.349250000000     0.048550000000     0.588800000000     0.0399938  
H62      H      0.469760000000     0.168370000000     0.589300000000     0.0379537  
H63      H      0.505690000000     0.132430000000     0.546480000000     0.0379501  
H64      H      0.385890000000     0.011910000000     0.546970000000     0.0399972  
H65      H      0.172480000000     0.465870000000     0.879850000000     0.0379225  
H66      H      0.052670000000     0.345360000000     0.880350000000     0.0400186  
H67      H      0.016050000000     0.382010000000     0.922210000000     0.0399992  
H68      H      0.136570000000     0.501810000000     0.922690000000     0.0378948  
H69      H      0.309230000000     0.341860000000     0.755500000000     0.0399711  
H70      H      0.189410000000     0.221350000000     0.756000000000     0.0379503  
H71      H      0.225330000000     0.185410000000     0.713150000000     0.0379617  
H72      H      0.345850000000     0.305210000000     0.713630000000     0.039992   
H73      H      0.522590000000     0.448310000000     0.789000000000     0.0364329  
H74      H      0.451440000000     0.515750000000     0.794370000000     0.0370179  
H75      H      0.452280000000     0.518730000000     0.680160000000     0.0364487  
H76      H      0.519670000000     0.447530000000     0.674790000000     0.0370445  
H77      H      0.577010000000     0.504870000000     0.174780000000     0.037073   
H78      H      0.505820000000     0.572280000000     0.180160000000     0.0365369  
H79      H      0.508790000000     0.573100000000     0.294370000000     0.037044   
H80      H      0.576220000000     0.501950000000     0.288990000000     0.0364738  
H81      H      0.842210000000     0.239700000000     0.960970000000     0.036846   
H82      H      0.909590000000     0.168490000000     0.955590000000     0.0362869  
H83      H      0.910410000000     0.171450000000     0.841380000000     0.0369532  
H84      H      0.839280000000     0.238910000000     0.846760000000     0.0364194  
H85      H      0.785640000000     0.185280000000     0.346750000000     0.0364781  
H86      H      0.853060000000     0.114110000000     0.341380000000     0.0370279  
H87      H      0.856040000000     0.114940000000     0.455590000000     0.0364554  
H88      H      0.784860000000     0.182360000000     0.460960000000     0.0370382  
H89      H      0.189290000000     0.413960000000     0.622270000000     0.0364638  
H90      H      0.118170000000     0.275410000000     0.627770000000     0.0370565  
H91      H      0.118970000000     0.273260000000     0.513560000000     0.036484   
H92      H      0.186330000000     0.411820000000     0.508050000000     0.0370303  
H93      H      0.175550000000     0.275400000000     0.127800000000     0.0370899  
H94      H      0.242880000000     0.413950000000     0.122290000000     0.0365249  
H95      H      0.243710000000     0.411810000000     0.008080000000     0.0371911  
H96      H      0.172610000000     0.273250000000     0.013580000000     0.0366332  
H97      H      0.050240000000     0.221330000000     0.256000000000     0.0379446  
H98      H      0.050860000000     0.341850000000     0.255420000000     0.0399588  
H99      H      0.977590000000     0.305200000000     0.213590000000     0.0400714  
H100     H      0.978370000000     0.185390000000     0.213180000000     0.0380064  
H101     H      0.310990000000     0.345360000000     0.380410000000     0.0400036  
H102     H      0.311620000000     0.465880000000     0.379830000000     0.0379583  
H103     H      0.383490000000     0.501830000000     0.422620000000     0.0379457  
H104     H      0.384270000000     0.382020000000     0.422200000000     0.0399995  
H105     H      0.577000000000     0.078390000000     0.674710000000     0.0370389  
H106     H      0.505860000000     0.939840000000     0.680200000000     0.0364537  
H107     H      0.508830000000     0.941980000000     0.794420000000     0.0370233  
H108     H      0.576210000000     0.080540000000     0.788920000000     0.0363951  
H109     H      0.519630000000     0.078410000000     0.174680000000     0.0370878  
H110     H      0.452310000000     0.939860000000     0.180180000000     0.0365216  
H111     H      0.451460000000     0.942000000000     0.294390000000     0.0370481  
H112     H      0.522540000000     0.080560000000     0.288890000000     0.0364584  
H113     H      0.644980000000     0.132450000000     0.046430000000     0.0380209  
H114     H      0.644320000000     0.011910000000     0.047010000000     0.0400741  
H115     H      0.717610000000     0.048560000000     0.088780000000     0.0400604  
H116     H      0.716860000000     0.168390000000     0.089190000000     0.0380048  
H117     H      0.175520000000     0.906400000000     0.627670000000     0.0370598  
H118     H      0.242920000000     0.835210000000     0.622290000000     0.0364496  
H119     H      0.243730000000     0.838160000000     0.508070000000     0.0370287  
H120     H      0.172570000000     0.905600000000     0.513460000000     0.0364435  
H121     H      0.186370000000     0.780810000000     0.008070000000     0.0372135  
H122     H      0.118960000000     0.852000000000     0.013460000000     0.036637   
H123     H      0.118160000000     0.849050000000     0.127670000000     0.0370994  
H124     H      0.189330000000     0.781620000000     0.122280000000     0.0365024  
H125     H      0.383540000000     0.887960000000     0.922650000000     0.0379036  
H126     H      0.384230000000     0.008510000000     0.922090000000     0.0399634  
H127     H      0.310950000000     0.971890000000     0.880280000000     0.039951   
H128     H      0.311670000000     0.852040000000     0.879860000000     0.037906   
H129     H      0.785670000000     0.606670000000     0.846780000000     0.0364134  
H130     H      0.853040000000     0.745230000000     0.841280000000     0.036982   
H131     H      0.856000000000     0.747370000000     0.955500000000     0.0362764  
H132     H      0.784870000000     0.608810000000     0.960980000000     0.0368592  
H133     H      0.842240000000     0.608810000000     0.461020000000     0.0370194  
H134     H      0.909570000000     0.747360000000     0.455520000000     0.036424   
H135     H      0.910400000000     0.745220000000     0.341310000000     0.0370118  
H136     H      0.839310000000     0.606660000000     0.346800000000     0.0364765  
H137     H      0.717560000000     0.675310000000     0.588700000000     0.0399967  
H138     H      0.716900000000     0.554770000000     0.589270000000     0.0379333  
H139     H      0.645020000000     0.518830000000     0.546520000000     0.0379559  
H140     H      0.644270000000     0.638660000000     0.546940000000     0.0400012  
H141     H      0.978340000000     0.799250000000     0.713060000000     0.037974   
H142     H      0.977650000000     0.678700000000     0.713620000000     0.0400054  
H143     H      0.050920000000     0.715320000000     0.755440000000     0.0399325  
H144     H      0.050210000000     0.835160000000     0.755870000000     0.0378901  
N1       N      0.782080000000     0.052290000000     0.709840000000    -0.175302   
N2       N      0.740030000000     0.968230000000     0.759120000000    -0.175253   
N3       N      0.955280000000     0.385650000000     0.543270000000    -0.175157   
N4       N      0.913230000000     0.301570000000     0.592510000000    -0.175306   
N5       N      0.115420000000     0.718980000000     0.376580000000    -0.175292   
N6       N      0.073410000000     0.634920000000     0.425900000000    -0.175319   
N7       N      0.579770000000     0.634910000000     0.925860000000    -0.175264   
N8       N      0.621810000000     0.718960000000     0.876530000000    -0.175284   
N9       N      0.246470000000     0.968240000000     0.259180000000    -0.175292   
N10      N      0.288480000000     0.052300000000     0.209890000000    -0.175253   
N11      N      0.448640000000     0.385650000000     0.043270000000    -0.175244   
N12      N      0.406610000000     0.301580000000     0.092540000000    -0.175264   
N13      N      0.682180000000     0.817550000000     0.502320000000    -0.176038   
N14      N      0.679670000000     0.816290000000     0.633320000000    -0.176027   
N15      N      0.682170000000     0.870900000000     0.002300000000    -0.175739   
N16      N      0.679650000000     0.869650000000     0.133300000000    -0.17604    
N17      N      0.740020000000     0.778070000000     0.259130000000    -0.175312   
N18      N      0.782070000000     0.736070000000     0.209800000000    -0.175271   
N19      N      0.621810000000     0.909140000000     0.376500000000    -0.175304   
N20      N      0.579780000000     0.951140000000     0.425860000000    -0.175244   
N21      N      0.013090000000     0.536380000000     0.800080000000    -0.175954   
N22      N      0.015600000000     0.537600000000     0.669090000000    -0.175888   
N23      N      0.015610000000     0.484280000000     0.169110000000    -0.175913   
N24      N      0.013100000000     0.483010000000     0.300110000000    -0.175976   
N25      N      0.955280000000     0.575920000000     0.043230000000    -0.175145   
N26      N      0.913250000000     0.617950000000     0.092510000000    -0.175332   
N27      N      0.348800000000     0.150850000000     0.835730000000    -0.176046   
N28      N      0.346290000000     0.149630000000     0.966730000000    -0.176329   
N29      N      0.346280000000     0.202940000000     0.466700000000    -0.176073   
N30      N      0.348780000000     0.204220000000     0.335700000000    -0.176056   
N31      N      0.406610000000     0.111300000000     0.592540000000    -0.175237   
N32      N      0.448630000000     0.069270000000     0.543230000000    -0.175335   
N33      N      0.115410000000     0.402710000000     0.876600000000    -0.17531    
N34      N      0.073410000000     0.444750000000     0.925940000000    -0.175311   
N35      N      0.246480000000     0.284500000000     0.759240000000    -0.175292   
N36      N      0.288490000000     0.242460000000     0.709890000000    -0.175313   
N37      N      0.488180000000     0.483010000000     0.800080000000    -0.176025   
N38      N      0.486960000000     0.484300000000     0.669080000000    -0.176033   
N39      N      0.540250000000     0.537590000000     0.169080000000    -0.175993   
N40      N      0.541530000000     0.536360000000     0.300080000000    -0.176049   
N41      N      0.874910000000     0.202920000000     0.966680000000    -0.176392   
N42      N      0.873680000000     0.204200000000     0.835670000000    -0.176127   
N43      N      0.820340000000     0.150860000000     0.335670000000    -0.176033   
N44      N      0.821620000000     0.149640000000     0.466670000000    -0.17602    
N45      N      0.154890000000     0.344870000000     0.633410000000    -0.176032   
N46      N      0.153630000000     0.342360000000     0.502410000000    -0.176069   
N47      N      0.208230000000     0.344860000000     0.133440000000    -0.176055   
N48      N      0.206990000000     0.342350000000     0.002440000000    -0.175758   
N49      N      0.056290000000     0.284500000000     0.259200000000    -0.175361   
N50      N      0.972240000000     0.242450000000     0.209890000000    -0.175174   
N51      N      0.305560000000     0.402720000000     0.376630000000    -0.175266   
N52      N      0.389620000000     0.444770000000     0.425900000000    -0.17529    
N53      N      0.540260000000     0.008930000000     0.669060000000    -0.176035   
N54      N      0.541540000000     0.011450000000     0.800060000000    -0.176053   
N55      N      0.486960000000     0.008950000000     0.169040000000    -0.175983   
N56      N      0.488170000000     0.011460000000     0.300040000000    -0.176062   
N57      N      0.638900000000     0.069280000000     0.043230000000    -0.175259   
N58      N      0.722980000000     0.111320000000     0.092480000000    -0.175229   
N59      N      0.208230000000     0.869640000000     0.633370000000    -0.176053   
N60      N      0.206980000000     0.870900000000     0.502370000000    -0.176086   
N61      N      0.153650000000     0.817570000000     0.002370000000    -0.175769   
N62      N      0.154910000000     0.816320000000     0.133370000000    -0.176036   
N63      N      0.389630000000     0.951140000000     0.925860000000    -0.175223   
N64      N      0.305570000000     0.909120000000     0.876580000000    -0.175284   
N65      N      0.820340000000     0.675770000000     0.835640000000    -0.176032   
N66      N      0.821610000000     0.678280000000     0.966630000000    -0.176348   
N67      N      0.874920000000     0.678270000000     0.466660000000    -0.176088   
N68      N      0.873700000000     0.675760000000     0.335660000000    -0.176035   
N69      N      0.722980000000     0.617940000000     0.592470000000    -0.175271   
N70      N      0.638900000000     0.575910000000     0.543240000000    -0.175276   
N71      N      0.972250000000     0.736070000000     0.709850000000    -0.175188   
N72      N      0.056310000000     0.778080000000     0.759150000000    -0.175411   
O1       O      0.913010000000     0.738640000000     0.672720000000    -0.397979   
O2       O      0.786660000000     0.679840000000     0.619560000000    -0.392393   
O3       O      0.833990000000     0.707830000000     0.738010000000    -0.395906   
O4       O      0.867980000000     0.711730000000     0.554590000000    -0.394913   
O5       O      0.861260000000     0.646200000000     0.564280000000    -0.395912   
O6       O      0.827260000000     0.642290000000     0.747700000000    -0.394809   
O7       O      0.782230000000     0.615380000000     0.629570000000    -0.397861   
O8       O      0.908570000000     0.674190000000     0.682740000000    -0.392599   
O9       O      0.115540000000     0.839860000000     0.796250000000    -0.397967   
O10      O      0.241880000000     0.907350000000     0.849440000000    -0.392501   
O11      O      0.194570000000     0.888040000000     0.730970000000    -0.395998   
O12      O      0.160570000000     0.857960000000     0.914400000000    -0.39486    
O13      O      0.167310000000     0.799160000000     0.904770000000    -0.395987   
O14      O      0.201310000000     0.829240000000     0.721340000000    -0.394876   
O15      O      0.246330000000     0.847340000000     0.839490000000    -0.398009   
O16      O      0.119990000000     0.779850000000     0.786300000000    -0.392454   
O17      O      0.453310000000     0.013030000000     0.952960000000    -0.392383   
O18      O      0.579650000000     0.071830000000     0.006130000000    -0.397559   
O19      O      0.534620000000     0.044920000000     0.888000000000    -0.394762   
O20      O      0.500630000000     0.041020000000     0.071420000000    -0.395484   
O21      O      0.493910000000     0.975480000000     0.081110000000    -0.39436    
O22      O      0.527900000000     0.979390000000     0.897690000000    -0.395935   
O23      O      0.575220000000     0.007380000000     0.016140000000    -0.392085   
O24      O      0.448880000000     0.948570000000     0.962980000000    -0.397818   
O25      O      0.246300000000     0.405250000000     0.339500000000    -0.397948   
O26      O      0.119960000000     0.346400000000     0.286320000000    -0.392442   
O27      O      0.167270000000     0.374410000000     0.404780000000    -0.395886   
O28      O      0.201280000000     0.378320000000     0.221360000000    -0.394934   
O29      O      0.194580000000     0.312800000000     0.231060000000    -0.395853   
O30      O      0.160570000000     0.308890000000     0.414480000000    -0.394805   
O31      O      0.115550000000     0.281960000000     0.296340000000    -0.397912   
O32      O      0.241900000000     0.340810000000     0.349530000000    -0.392386   
O33      O      0.908540000000     0.240650000000     0.182730000000    -0.39235    
O34      O      0.782210000000     0.173120000000     0.129550000000    -0.397833   
O35      O      0.827230000000     0.191240000000     0.247690000000    -0.39485    
O36      O      0.861230000000     0.221320000000     0.064260000000    -0.395858   
O37      O      0.867990000000     0.162530000000     0.054650000000    -0.394922   
O38      O      0.834000000000     0.132450000000     0.238080000000    -0.395926   
O39      O      0.786680000000     0.113110000000     0.119610000000    -0.392339   
O40      O      0.913020000000     0.180650000000     0.172790000000    -0.397923   
O41      O      0.575200000000     0.574110000000     0.516130000000    -0.392326   
O42      O      0.448850000000     0.506570000000     0.462980000000    -0.39791    
O43      O      0.493890000000     0.524700000000     0.581110000000    -0.394854   
O44      O      0.527860000000     0.554770000000     0.397670000000    -0.395919   
O45      O      0.534630000000     0.495980000000     0.388060000000    -0.394862   
O46      O      0.500650000000     0.465910000000     0.571490000000    -0.395977   
O47      O      0.453320000000     0.446570000000     0.453030000000    -0.392518   
O48      O      0.579660000000     0.514100000000     0.506190000000    -0.397902   
O49      O      0.117190000000     0.340810000000     0.849480000000    -0.392469   
O50      O      0.184710000000     0.281960000000     0.796370000000    -0.398011   
O51      O      0.166610000000     0.308880000000     0.914480000000    -0.394843   
O52      O      0.136510000000     0.312810000000     0.731040000000    -0.395861   
O53      O      0.195290000000     0.378330000000     0.721370000000    -0.394895   
O54      O      0.225390000000     0.374400000000     0.904810000000    -0.395972   
O55      O      0.244700000000     0.346410000000     0.786370000000    -0.392572   
O56      O      0.177190000000     0.405250000000     0.839480000000    -0.398049   
O57      O      0.344720000000     0.113110000000     0.619670000000    -0.392581   
O58      O      0.285920000000     0.180670000000     0.672770000000    -0.397974   
O59      O      0.312820000000     0.162550000000     0.554660000000    -0.394841   
O60      O      0.316740000000     0.132450000000     0.738110000000    -0.395938   
O61      O      0.382270000000     0.191220000000     0.747760000000    -0.394942   
O62      O      0.378340000000     0.221320000000     0.564320000000    -0.395893   
O63      O      0.350370000000     0.240660000000     0.682760000000    -0.392557   
O64      O      0.409170000000     0.173100000000     0.629650000000    -0.398025   
O65      O      0.011530000000     0.446570000000     0.953060000000    -0.392345   
O66      O      0.952730000000     0.514120000000     0.006150000000    -0.397648   
O67      O      0.979630000000     0.496000000000     0.888050000000    -0.395167   
O68      O      0.983550000000     0.465900000000     0.071490000000    -0.395738   
O69      O      0.049070000000     0.524680000000     0.081150000000    -0.394607   
O70      O      0.045150000000     0.554770000000     0.897700000000    -0.39599    
O71      O      0.017170000000     0.574110000000     0.016140000000    -0.391922   
O72      O      0.075970000000     0.506550000000     0.963050000000    -0.398035   
O73      O      0.678120000000     0.779850000000     0.286260000000    -0.392575   
O74      O      0.619280000000     0.847360000000     0.339370000000    -0.397975   
O75      O      0.646190000000     0.829260000000     0.221260000000    -0.39484    
O76      O      0.650130000000     0.799160000000     0.404700000000    -0.395959   
O77      O      0.715640000000     0.857950000000     0.414370000000    -0.394853   
O78      O      0.711710000000     0.888050000000     0.230920000000    -0.395807   
O79      O      0.683710000000     0.907360000000     0.349370000000    -0.392514   
O80      O      0.742560000000     0.839850000000     0.296250000000    -0.398041   
O81      O      0.783890000000     0.674180000000     0.182680000000    -0.392518   
O82      O      0.851450000000     0.615390000000     0.129600000000    -0.398025   
O83      O      0.833320000000     0.642290000000     0.247700000000    -0.394904   
O84      O      0.803230000000     0.646210000000     0.064250000000    -0.395884   
O85      O      0.862000000000     0.711740000000     0.054590000000    -0.394785   
O86      O      0.892090000000     0.707820000000     0.238040000000    -0.395931   
O87      O      0.911430000000     0.679840000000     0.119610000000    -0.392537   
O88      O      0.843870000000     0.738640000000     0.172700000000    -0.397911   
O89      O      0.517990000000     0.948570000000     0.462990000000    -0.397966   
O90      O      0.450430000000     0.007380000000     0.516100000000    -0.39245    
O91      O      0.469770000000     0.979400000000     0.397660000000    -0.395889   
O92      O      0.499870000000     0.975470000000     0.581110000000    -0.39482    
O93      O      0.558640000000     0.041000000000     0.571440000000    -0.395955   
O94      O      0.528540000000     0.044930000000     0.388000000000    -0.39488    
O95      O      0.510420000000     0.071830000000     0.506120000000    -0.39802    
O96      O      0.577970000000     0.013030000000     0.453000000000    -0.392518   
O97      O      0.350370000000     0.115980000000     0.182800000000    -0.392404   
O98      O      0.409170000000     0.242330000000     0.129650000000    -0.39789    
O99      O      0.382260000000     0.197290000000     0.247770000000    -0.394812   
O100     O      0.378360000000     0.163310000000     0.064350000000    -0.395843   
O101     O      0.312830000000     0.156590000000     0.054650000000    -0.394762   
O102     O      0.316730000000     0.190570000000     0.238080000000    -0.395949   
O103     O      0.344720000000     0.237900000000     0.119630000000    -0.392477   
O104     O      0.285920000000     0.111550000000     0.172770000000    -0.397968   
O105     O      0.510430000000     0.444870000000     0.006200000000    -0.397547   
O106     O      0.577970000000     0.571210000000     0.953020000000    -0.392334   
O107     O      0.558630000000     0.523900000000     0.071490000000    -0.39557    
O108     O      0.528560000000     0.489900000000     0.888060000000    -0.394759   
O109     O      0.469780000000     0.496680000000     0.897670000000    -0.395837   
O110     O      0.499850000000     0.530670000000     0.081110000000    -0.394506   
O111     O      0.517970000000     0.575700000000     0.962970000000    -0.397797   
O112     O      0.450440000000     0.449350000000     0.016140000000    -0.392168   
O113     O      0.244700000000     0.904550000000     0.286310000000    -0.392464   
O114     O      0.177200000000     0.778210000000     0.339480000000    -0.397966   
O115     O      0.195300000000     0.823230000000     0.221340000000    -0.394855   
O116     O      0.225380000000     0.857230000000     0.404770000000    -0.39591    
O117     O      0.166590000000     0.863980000000     0.414400000000    -0.39494    
O118     O      0.136510000000     0.829990000000     0.230970000000    -0.395876   
O119     O      0.117190000000     0.782670000000     0.349430000000    -0.392414   
O120     O      0.184690000000     0.909000000000     0.296260000000    -0.398007   
O121     O      0.075980000000     0.575680000000     0.463030000000    -0.397888   
O122     O      0.017170000000     0.449320000000     0.516180000000    -0.392133   
O123     O      0.045160000000     0.496650000000     0.397730000000    -0.395857   
O124     O      0.049070000000     0.530640000000     0.581160000000    -0.394882   
O125     O      0.983540000000     0.523930000000     0.571460000000    -0.396065   
O126     O      0.979630000000     0.489930000000     0.388040000000    -0.395107   
O127     O      0.952720000000     0.444910000000     0.506170000000    -0.397774   
O128     O      0.011530000000     0.571250000000     0.453010000000    -0.392308   
O129     O      0.911430000000     0.237860000000     0.619630000000    -0.392459   
O130     O      0.843880000000     0.111510000000     0.672770000000    -0.397954   
O131     O      0.862010000000     0.156550000000     0.554640000000    -0.394826   
O132     O      0.892080000000     0.190530000000     0.738080000000    -0.396041   
O133     O      0.833310000000     0.197310000000     0.747700000000    -0.394907   
O134     O      0.803230000000     0.163330000000     0.564260000000    -0.395947   
O135     O      0.783890000000     0.116000000000     0.682710000000    -0.392501   
O136     O      0.851430000000     0.242340000000     0.629570000000    -0.397909   
O137     O      0.742560000000     0.908970000000     0.796250000000    -0.398021   
O138     O      0.683710000000     0.782620000000     0.849410000000    -0.392436   
O139     O      0.711720000000     0.829940000000     0.730950000000    -0.39585    
O140     O      0.715630000000     0.863940000000     0.914380000000    -0.394811   
O141     O      0.650110000000     0.857250000000     0.904670000000    -0.395884   
O142     O      0.646200000000     0.823240000000     0.721250000000    -0.394815   
O143     O      0.619270000000     0.778220000000     0.839380000000    -0.397989   
O144     O      0.678120000000     0.904570000000     0.786220000000    -0.392454   


