data_structure

_audit_creation_method RASPA-1.0
_audit_creation_date 2023-5-23
_audit_author_name 'Poobodin Mano'

_cell_length_a    43.3649
_cell_length_b    43.3672
_cell_length_c    43.4838
_cell_angle_alpha 90
_cell_angle_beta  90
_cell_angle_gamma 90
_cell_volume      81776.3

_symmetry_cell_setting          triclinic
_symmetry_space_group_name_Hall 'P 1'
_symmetry_space_group_name_H-M  'P 1'
_symmetry_Int_Tables_number     1

_symmetry_equiv_pos_as_xyz 'x,y,z'

loop_
_atom_site_label
_atom_site_type_symbol
_atom_site_fract_x
_atom_site_fract_y
_atom_site_fract_z
_atom_site_charge
C1       C      0.382430000000     0.820810000000     0.504810000000     0.405824   
C2       C      0.381840000000     0.943640000000     0.006560000000     0.40374    
C3       C      0.383250000000     0.882910000000     0.444420000000     0.404098   
C4       C      0.381010000000     0.881360000000     0.067070000000     0.40365    
C5       C      0.382380000000     0.820720000000     0.256570000000     0.405879   
C6       C      0.382050000000     0.943550000000     0.255180000000     0.404512   
C7       C      0.381060000000     0.881390000000     0.194440000000     0.403859   
C8       C      0.383300000000     0.882730000000     0.317100000000     0.404234   
C9       C      0.381580000000     0.071320000000     0.007270000000     0.404008   
C10      C      0.381730000000     0.194160000000     0.006050000000     0.405438   
C11      C      0.381610000000     0.132220000000     0.445410000000     0.40406    
C12      C      0.381600000000     0.133470000000     0.068080000000     0.403802   
C13      C      0.381740000000     0.071230000000     0.255890000000     0.404339   
C14      C      0.381260000000     0.194040000000     0.257820000000     0.406285   
C15      C      0.381640000000     0.133580000000     0.195440000000     0.403772   
C16      C      0.381450000000     0.131940000000     0.318100000000     0.404124   
C17      C      0.943730000000     0.633360000000     0.504410000000     0.404324   
C18      C      0.820910000000     0.632860000000     0.506460000000     0.40592    
C19      C      0.883230000000     0.632050000000     0.066610000000     0.404131   
C20      C      0.881240000000     0.634230000000     0.443950000000     0.403379   
C21      C      0.943670000000     0.633360000000     0.256430000000     0.404267   
C22      C      0.820850000000     0.632790000000     0.253800000000     0.406005   
C23      C      0.881030000000     0.634210000000     0.316570000000     0.40346    
C24      C      0.883340000000     0.632030000000     0.193920000000     0.404403   
C25      C      0.071410000000     0.633410000000     0.505190000000     0.404364   
C26      C      0.194230000000     0.632960000000     0.507500000000     0.406058   
C27      C      0.133920000000     0.634310000000     0.444940000000     0.403874   
C28      C      0.131880000000     0.632130000000     0.067590000000     0.403834   
C29      C      0.071350000000     0.633410000000     0.257050000000     0.404336   
C30      C      0.194170000000     0.632980000000     0.255180000000     0.406014   
C31      C      0.131950000000     0.632130000000     0.194910000000     0.403934   
C32      C      0.133750000000     0.634330000000     0.317560000000     0.403533   
C33      C      0.633280000000     0.071300000000     0.505000000000     0.404223   
C34      C      0.632690000000     0.194130000000     0.003590000000     0.40541    
C35      C      0.631940000000     0.132220000000     0.442980000000     0.404097   
C36      C      0.634130000000     0.133360000000     0.065630000000     0.40349    
C37      C      0.633300000000     0.071290000000     0.254110000000     0.40421    
C38      C      0.632880000000     0.194120000000     0.254620000000     0.405969   
C39      C      0.634190000000     0.133110000000     0.193000000000     0.403972   
C40      C      0.631990000000     0.132470000000     0.315650000000     0.404274   
C41      C      0.633370000000     0.943610000000     0.506140000000     0.404123   
C42      C      0.633020000000     0.820780000000     0.504970000000     0.405948   
C43      C      0.634310000000     0.881530000000     0.067020000000     0.403646   
C44      C      0.632120000000     0.882700000000     0.444370000000     0.404081   
C45      C      0.633360000000     0.943600000000     0.254970000000     0.404407   
C46      C      0.632940000000     0.820760000000     0.256620000000     0.405799   
C47      C      0.632100000000     0.882820000000     0.317050000000     0.404189   
C48      C      0.634290000000     0.881380000000     0.194400000000     0.403644   
C49      C      0.320580000000     0.382360000000     0.009770000000     0.400784   
C50      C      0.443260000000     0.382180000000     0.005780000000     0.399341   
C51      C      0.381820000000     0.320940000000     0.006540000000     0.400771   
C52      C      0.381960000000     0.443650000000     0.008800000000     0.399228   
C53      C      0.320380000000     0.382130000000     0.258450000000     0.405776   
C54      C      0.443190000000     0.381740000000     0.254630000000     0.403926   
C55      C      0.381360000000     0.320710000000     0.257810000000     0.406082   
C56      C      0.381880000000     0.443530000000     0.254980000000     0.403927   
C57      C      0.321020000000     0.632720000000     0.507940000000     0.405137   
C58      C      0.443730000000     0.632710000000     0.505570000000     0.403515   
C59      C      0.382460000000     0.694040000000     0.505270000000     0.405167   
C60      C      0.382250000000     0.571340000000     0.508290000000     0.403647   
C61      C      0.320960000000     0.632630000000     0.254570000000     0.405371   
C62      C      0.443680000000     0.632640000000     0.256130000000     0.403825   
C63      C      0.382370000000     0.693940000000     0.256440000000     0.405294   
C64      C      0.382200000000     0.571220000000     0.254400000000     0.403573   
C65      C      0.693690000000     0.382260000000     0.006770000000     0.400889   
C66      C      0.570960000000     0.382190000000     0.004770000000     0.39938    
C67      C      0.632340000000     0.320900000000     0.004270000000     0.400936   
C68      C      0.632410000000     0.443600000000     0.007150000000     0.399274   
C69      C      0.632670000000     0.320900000000     0.253200000000     0.405168   
C70      C      0.631960000000     0.443620000000     0.250940000000     0.403698   
C71      C      0.693620000000     0.382720000000     0.251550000000     0.405141   
C72      C      0.570870000000     0.381750000000     0.252490000000     0.403502   
C73      C      0.694130000000     0.632570000000     0.507190000000     0.405011   
C74      C      0.571410000000     0.632770000000     0.505300000000     0.403832   
C75      C      0.632830000000     0.694000000000     0.505090000000     0.405393   
C76      C      0.632740000000     0.571290000000     0.507400000000     0.403395   
C77      C      0.694060000000     0.632470000000     0.252830000000     0.405181   
C78      C      0.571360000000     0.632820000000     0.255370000000     0.40377    
C79      C      0.632820000000     0.693980000000     0.255840000000     0.405225   
C80      C      0.632540000000     0.571300000000     0.252130000000     0.403599   
C81      C      0.070970000000     0.382000000000     0.010180000000     0.403833   
C82      C      0.193800000000     0.382430000000     0.011820000000     0.405371   
C83      C      0.131870000000     0.383280000000     0.072490000000     0.403872   
C84      C      0.133050000000     0.381050000000     0.449840000000     0.403824   
C85      C      0.193690000000     0.381900000000     0.261140000000     0.405875   
C86      C      0.070860000000     0.382150000000     0.261040000000     0.404213   
C87      C      0.132480000000     0.380950000000     0.322500000000     0.403943   
C88      C      0.132270000000     0.383190000000     0.199850000000     0.403945   
C89      C      0.820480000000     0.382320000000     0.007050000000     0.405422   
C90      C      0.943330000000     0.382040000000     0.006360000000     0.40387    
C91      C      0.882390000000     0.383290000000     0.067790000000     0.404101   
C92      C      0.881240000000     0.381100000000     0.445130000000     0.403562   
C93      C      0.820380000000     0.382570000000     0.254500000000     0.405595   
C94      C      0.943190000000     0.382260000000     0.258040000000     0.404237   
C95      C      0.880350000000     0.381260000000     0.317730000000     0.403508   
C96      C      0.883070000000     0.383440000000     0.195100000000     0.404257   
C97      C      0.879210000000     0.353680000000     0.397510000000     0.0302084  
C98      C      0.881920000000     0.407980000000     0.397480000000     0.030043   
C99      C      0.881600000000     0.408030000000     0.365430000000     0.0299625  
C100     C      0.878900000000     0.353720000000     0.365310000000     0.0301336  
C101     C      0.884370000000     0.356530000000     0.115450000000     0.0301159  
C102     C      0.881600000000     0.410850000000     0.115330000000     0.0303064  
C103     C      0.881860000000     0.410890000000     0.147510000000     0.0304248  
C104     C      0.884630000000     0.356580000000     0.147480000000     0.0302083  
C105     C      0.023160000000     0.409380000000     0.259490000000     0.0304685  
C106     C      0.023070000000     0.355020000000     0.261000000000     0.0303943  
C107     C      0.990870000000     0.355040000000     0.260180000000     0.0304438  
C108     C      0.990960000000     0.409400000000     0.258670000000     0.0304763  
C109     C      0.131620000000     0.407830000000     0.402180000000     0.0300905  
C110     C      0.134400000000     0.353520000000     0.402280000000     0.0302233  
C111     C      0.134190000000     0.353490000000     0.370090000000     0.0302403  
C112     C      0.131420000000     0.407800000000     0.370140000000     0.030042   
C113     C      0.133430000000     0.410720000000     0.152280000000     0.030251   
C114     C      0.130590000000     0.356410000000     0.152180000000     0.0300232  
C115     C      0.130450000000     0.356440000000     0.120140000000     0.0301212  
C116     C      0.133270000000     0.410740000000     0.120090000000     0.0303909  
C117     C      0.023230000000     0.409160000000     0.509350000000     0.0304283  
C118     C      0.023260000000     0.354800000000     0.007890000000     0.0301632  
C119     C      0.991070000000     0.354810000000     0.006760000000     0.0300927  
C120     C      0.991050000000     0.409170000000     0.508220000000     0.0304891  
C121     C      0.773490000000     0.362570000000     0.234760000000     0.0318736  
C122     C      0.772690000000     0.403350000000     0.270800000000     0.0319985  
C123     C      0.740530000000     0.402460000000     0.271010000000     0.031957   
C124     C      0.741330000000     0.363850000000     0.232670000000     0.0315472  
C125     C      0.629920000000     0.491170000000     0.277960000000     0.0301942  
C126     C      0.634140000000     0.491560000000     0.223890000000     0.030275   
C127     C      0.634320000000     0.523860000000     0.224210000000     0.0304044  
C128     C      0.630120000000     0.523280000000     0.278280000000     0.030085   
C129     C      0.740940000000     0.363250000000     0.526500000000     0.0316449  
C130     C      0.741050000000     0.401820000000     0.988110000000     0.0343632  
C131     C      0.773190000000     0.402870000000     0.989260000000     0.0349061  
C132     C      0.773140000000     0.362130000000     0.525360000000     0.0319816  
C133     C      0.634610000000     0.491240000000     0.034670000000     0.0297552  
C134     C      0.630390000000     0.491450000000     0.480600000000     0.0301232  
C135     C      0.630480000000     0.523560000000     0.480660000000     0.0301188  
C136     C      0.634710000000     0.523530000000     0.034730000000     0.0297291  
C137     C      0.491540000000     0.634610000000     0.283240000000     0.0303518  
C138     C      0.491300000000     0.630820000000     0.229140000000     0.0301602  
C139     C      0.523420000000     0.630900000000     0.228940000000     0.0301444  
C140     C      0.523810000000     0.634660000000     0.283040000000     0.0303294  
C141     C      0.491370000000     0.634660000000     0.478070000000     0.0302399  
C142     C      0.491570000000     0.630790000000     0.032170000000     0.0295962  
C143     C      0.523690000000     0.630800000000     0.032100000000     0.0296026  
C144     C      0.523650000000     0.634690000000     0.478010000000     0.0304338  
C145     C      0.272720000000     0.363470000000     0.239760000000     0.0322884  
C146     C      0.273540000000     0.400120000000     0.279980000000     0.0322561  
C147     C      0.241330000000     0.401280000000     0.279490000000     0.0321412  
C148     C      0.240600000000     0.362260000000     0.241550000000     0.0320164  
C149     C      0.490440000000     0.382130000000     0.226540000000     0.0302969  
C150     C      0.491410000000     0.380950000000     0.280750000000     0.0302228  
C151     C      0.523570000000     0.380830000000     0.280240000000     0.030389   
C152     C      0.522680000000     0.382250000000     0.226040000000     0.0302006  
C153     C      0.380360000000     0.491110000000     0.227320000000     0.0304355  
C154     C      0.383690000000     0.491430000000     0.281450000000     0.0300987  
C155     C      0.383810000000     0.523550000000     0.281290000000     0.0302034  
C156     C      0.380400000000     0.523400000000     0.227170000000     0.0303584  
C157     C      0.240840000000     0.403000000000     0.493460000000     0.0319279  
C158     C      0.241400000000     0.362320000000     0.029620000000     0.0315557  
C159     C      0.273620000000     0.363440000000     0.030300000000     0.0308631  
C160     C      0.272960000000     0.401930000000     0.491830000000     0.031951   
C161     C      0.490740000000     0.380200000000     0.477920000000     0.0302428  
C162     C      0.491270000000     0.384160000000     0.032010000000     0.029547   
C163     C      0.523370000000     0.384160000000     0.031750000000     0.0296734  
C164     C      0.523040000000     0.380220000000     0.477670000000     0.0303272  
C165     C      0.380250000000     0.491470000000     0.036070000000     0.0296055  
C166     C      0.383920000000     0.491330000000     0.481960000000     0.0301598  
C167     C      0.384010000000     0.523440000000     0.481830000000     0.0301226  
C168     C      0.380320000000     0.523760000000     0.035930000000     0.0298532  
C169     C      0.653010000000     0.773320000000     0.274900000000     0.0320135  
C170     C      0.612230000000     0.773570000000     0.238860000000     0.031951   
C171     C      0.613200000000     0.741440000000     0.237610000000     0.0319192  
C172     C      0.651810000000     0.741110000000     0.275960000000     0.0315886  
C173     C      0.612430000000     0.773510000000     0.022720000000     0.0315392  
C174     C      0.653060000000     0.773430000000     0.486500000000     0.0319596  
C175     C      0.651840000000     0.741240000000     0.485280000000     0.0316098  
C176     C      0.613400000000     0.741370000000     0.023800000000     0.0312444  
C177     C      0.604620000000     0.881650000000     0.396810000000     0.0304767  
C178     C      0.658930000000     0.884330000000     0.396730000000     0.0302656  
C179     C      0.658930000000     0.884380000000     0.364690000000     0.0301284  
C180     C      0.604610000000     0.881700000000     0.364620000000     0.0303662  
C181     C      0.607480000000     0.882620000000     0.114690000000     0.0299786  
C182     C      0.661790000000     0.879820000000     0.114620000000     0.0301113  
C183     C      0.661780000000     0.879760000000     0.146820000000     0.0301323  
C184     C      0.607470000000     0.882560000000     0.146730000000     0.0300308  
C185     C      0.652880000000     0.241660000000     0.272600000000     0.0319787  
C186     C      0.612450000000     0.241200000000     0.236160000000     0.0319641  
C187     C      0.613470000000     0.273340000000     0.234690000000     0.0319162  
C188     C      0.651700000000     0.273860000000     0.273420000000     0.0315582  
C189     C      0.606190000000     0.023530000000     0.254960000000     0.0304141  
C190     C      0.660550000000     0.023550000000     0.253500000000     0.030428   
C191     C      0.660570000000     0.991340000000     0.253730000000     0.0303979  
C192     C      0.606210000000     0.991340000000     0.255200000000     0.0305516  
C193     C      0.612020000000     0.241290000000     0.021510000000     0.0315104  
C194     C      0.652650000000     0.241590000000     0.485300000000     0.0320185  
C195     C      0.651400000000     0.273790000000     0.484240000000     0.0315736  
C196     C      0.612940000000     0.273430000000     0.022740000000     0.0312279  
C197     C      0.658780000000     0.130820000000     0.395350000000     0.030119   
C198     C      0.604460000000     0.133430000000     0.395400000000     0.030404   
C199     C      0.604470000000     0.133520000000     0.363210000000     0.0303271  
C200     C      0.658790000000     0.130910000000     0.363310000000     0.030179   
C201     C      0.607330000000     0.132010000000     0.113300000000     0.0299888  
C202     C      0.661640000000     0.134920000000     0.113210000000     0.0301163  
C203     C      0.661650000000     0.134820000000     0.145400000000     0.0302278  
C204     C      0.607350000000     0.131920000000     0.145350000000     0.0301157  
C205     C      0.606190000000     0.023530000000     0.504900000000     0.0304264  
C206     C      0.660550000000     0.023590000000     0.006360000000     0.0301965  
C207     C      0.660570000000     0.991370000000     0.006700000000     0.0300561  
C208     C      0.606210000000     0.991340000000     0.505240000000     0.0305332  
C209     C      0.241450000000     0.652960000000     0.236430000000     0.0319995  
C210     C      0.241520000000     0.612340000000     0.272650000000     0.032014   
C211     C      0.273670000000     0.613260000000     0.273550000000     0.0319186  
C212     C      0.273630000000     0.651700000000     0.235030000000     0.0315935  
C213     C      0.241520000000     0.653030000000     0.026180000000     0.0314288  
C214     C      0.241570000000     0.612200000000     0.490180000000     0.0319763  
C215     C      0.273720000000     0.613130000000     0.489250000000     0.0319016  
C216     C      0.273710000000     0.651790000000     0.027550000000     0.0309317  
C217     C      0.132810000000     0.607490000000     0.365220000000     0.0300538  
C218     C      0.135570000000     0.661800000000     0.365150000000     0.0301522  
C219     C      0.135630000000     0.661800000000     0.397350000000     0.0301856  
C220     C      0.132870000000     0.607490000000     0.397270000000     0.0299747  
C221     C      0.132870000000     0.604630000000     0.115160000000     0.0303742  
C222     C      0.130170000000     0.658940000000     0.115230000000     0.0302026  
C223     C      0.130200000000     0.658950000000     0.147270000000     0.0300817  
C224     C      0.132900000000     0.604630000000     0.147340000000     0.0303872  
C225     C      0.773630000000     0.652850000000     0.234930000000     0.0319087  
C226     C      0.773450000000     0.611880000000     0.270760000000     0.0320056  
C227     C      0.741300000000     0.612750000000     0.271520000000     0.031865   
C228     C      0.741440000000     0.651580000000     0.233390000000     0.0315955  
C229     C      0.991430000000     0.606260000000     0.256340000000     0.0304712  
C230     C      0.991380000000     0.660620000000     0.257780000000     0.0304536  
C231     C      0.023600000000     0.660630000000     0.257950000000     0.0304248  
C232     C      0.023620000000     0.606270000000     0.256510000000     0.030528   
C233     C      0.773540000000     0.612150000000     0.989140000000     0.0349905  
C234     C      0.773660000000     0.652860000000     0.525270000000     0.0319208  
C235     C      0.741480000000     0.651600000000     0.526720000000     0.031655   
C236     C      0.741390000000     0.613070000000     0.988290000000     0.034375   
C237     C      0.879280000000     0.661690000000     0.364160000000     0.0302067  
C238     C      0.882050000000     0.607390000000     0.364240000000     0.0300599  
C239     C      0.882130000000     0.607390000000     0.396290000000     0.0299768  
C240     C      0.879350000000     0.661700000000     0.396360000000     0.0301135  
C241     C      0.885020000000     0.658860000000     0.114250000000     0.030157   
C242     C      0.882350000000     0.604540000000     0.114170000000     0.0303036  
C243     C      0.882390000000     0.604540000000     0.146350000000     0.0305143  
C244     C      0.885070000000     0.658850000000     0.146290000000     0.0301601  
C245     C      0.991480000000     0.606250000000     0.505010000000     0.0305411  
C246     C      0.991460000000     0.660610000000     0.003570000000     0.0300994  
C247     C      0.023680000000     0.660620000000     0.003800000000     0.0301945  
C248     C      0.023670000000     0.606260000000     0.505240000000     0.0303919  
C249     C      0.400720000000     0.241280000000     0.277060000000     0.0321602  
C250     C      0.361190000000     0.241310000000     0.239630000000     0.0320134  
C251     C      0.362300000000     0.273460000000     0.238570000000     0.0322463  
C252     C      0.399480000000     0.273470000000     0.278320000000     0.0322991  
C253     C      0.361300000000     0.241550000000     0.488110000000     0.0320317  
C254     C      0.402560000000     0.241390000000     0.023610000000     0.0315343  
C255     C      0.401580000000     0.273540000000     0.024830000000     0.0311249  
C256     C      0.362460000000     0.273750000000     0.486980000000     0.0315002  
C257     C      0.408670000000     0.131780000000     0.365670000000     0.0303071  
C258     C      0.354290000000     0.131830000000     0.365730000000     0.0303115  
C259     C      0.354370000000     0.131820000000     0.397840000000     0.0302869  
C260     C      0.408750000000     0.131980000000     0.397780000000     0.03036    
C261     C      0.408800000000     0.133830000000     0.115700000000     0.0301585  
C262     C      0.354420000000     0.133880000000     0.115700000000     0.0300681  
C263     C      0.354470000000     0.133810000000     0.147820000000     0.0300969  
C264     C      0.408850000000     0.134000000000     0.147820000000     0.0301075  
C265     C      0.362320000000     0.773400000000     0.275070000000     0.0319992  
C266     C      0.402890000000     0.773430000000     0.238790000000     0.0320477  
C267     C      0.401850000000     0.741280000000     0.237680000000     0.0319212  
C268     C      0.363470000000     0.741210000000     0.276260000000     0.0315814  
C269     C      0.409130000000     0.991360000000     0.255080000000     0.0304496  
C270     C      0.354740000000     0.991220000000     0.255180000000     0.030434   
C271     C      0.354670000000     0.023420000000     0.255460000000     0.030493   
C272     C      0.409050000000     0.023560000000     0.255210000000     0.030484   
C273     C      0.362380000000     0.773430000000     0.986390000000     0.0349596  
C274     C      0.403090000000     0.773570000000     0.522520000000     0.0319693  
C275     C      0.402080000000     0.741430000000     0.523700000000     0.0319046  
C276     C      0.363540000000     0.741240000000     0.985280000000     0.034171   
C277     C      0.356450000000     0.884440000000     0.396770000000     0.0301901  
C278     C      0.410770000000     0.881840000000     0.396870000000     0.0304698  
C279     C      0.410790000000     0.881780000000     0.364680000000     0.0303439  
C280     C      0.356470000000     0.884380000000     0.364730000000     0.0302146  
C281     C      0.353540000000     0.879680000000     0.114670000000     0.0300469  
C282     C      0.407850000000     0.882470000000     0.114720000000     0.0300384  
C283     C      0.407860000000     0.882480000000     0.146770000000     0.030024   
C284     C      0.353560000000     0.879700000000     0.146870000000     0.0302764  
C285     C      0.354520000000     0.991310000000     0.007880000000     0.0301677  
C286     C      0.408880000000     0.991440000000     0.506280000000     0.0303994  
C287     C      0.408810000000     0.023640000000     0.506470000000     0.0305474  
C288     C      0.354450000000     0.023530000000     0.008090000000     0.0301504  
C289     C      0.382430000000     0.820810000000     0.004810000000     0.405351   
C290     C      0.381840000000     0.943640000000     0.506560000000     0.404172   
C291     C      0.383250000000     0.882910000000     0.944420000000     0.403793   
C292     C      0.381010000000     0.881360000000     0.567070000000     0.403831   
C293     C      0.382380000000     0.820720000000     0.756560000000     0.405887   
C294     C      0.382050000000     0.943550000000     0.755180000000     0.404534   
C295     C      0.381060000000     0.881390000000     0.694440000000     0.403731   
C296     C      0.383300000000     0.882730000000     0.817100000000     0.404291   
C297     C      0.381580000000     0.071320000000     0.507270000000     0.404438   
C298     C      0.381730000000     0.194160000000     0.506050000000     0.405913   
C299     C      0.381610000000     0.132220000000     0.945410000000     0.403756   
C300     C      0.381610000000     0.133470000000     0.568080000000     0.403987   
C301     C      0.381740000000     0.071230000000     0.755890000000     0.404363   
C302     C      0.381260000000     0.194040000000     0.757820000000     0.406293   
C303     C      0.381640000000     0.133580000000     0.695440000000     0.40374    
C304     C      0.381450000000     0.131940000000     0.818110000000     0.404117   
C305     C      0.943730000000     0.633360000000     0.004410000000     0.403886   
C306     C      0.820910000000     0.632860000000     0.006460000000     0.405453   
C307     C      0.883230000000     0.632050000000     0.566610000000     0.404314   
C308     C      0.881240000000     0.634230000000     0.943950000000     0.403069   
C309     C      0.943660000000     0.633360000000     0.756430000000     0.404386   
C310     C      0.820850000000     0.632790000000     0.753800000000     0.406009   
C311     C      0.881030000000     0.634210000000     0.816570000000     0.403514   
C312     C      0.883330000000     0.632030000000     0.693920000000     0.40441    
C313     C      0.071410000000     0.633410000000     0.005190000000     0.403928   
C314     C      0.194230000000     0.632960000000     0.007500000000     0.405593   
C315     C      0.133920000000     0.634310000000     0.944940000000     0.403564   
C316     C      0.131880000000     0.632130000000     0.567590000000     0.404017   
C317     C      0.071350000000     0.633410000000     0.757050000000     0.404363   
C318     C      0.194170000000     0.632980000000     0.755180000000     0.406017   
C319     C      0.131950000000     0.632130000000     0.694910000000     0.403929   
C320     C      0.133750000000     0.634330000000     0.817560000000     0.403601   
C321     C      0.633280000000     0.071300000000     0.005000000000     0.403786   
C322     C      0.632690000000     0.194130000000     0.503590000000     0.405612   
C323     C      0.631940000000     0.132220000000     0.942980000000     0.403818   
C324     C      0.634130000000     0.133360000000     0.565630000000     0.403696   
C325     C      0.633300000000     0.071290000000     0.754110000000     0.404233   
C326     C      0.632880000000     0.194120000000     0.754620000000     0.405975   
C327     C      0.634190000000     0.133110000000     0.693000000000     0.403964   
C328     C      0.631990000000     0.132470000000     0.815650000000     0.404329   
C329     C      0.633370000000     0.943610000000     0.006140000000     0.403691   
C330     C      0.633020000000     0.820780000000     0.004970000000     0.405475   
C331     C      0.634310000000     0.881530000000     0.567020000000     0.403828   
C332     C      0.632120000000     0.882700000000     0.944370000000     0.403777   
C333     C      0.633360000000     0.943600000000     0.754970000000     0.40444    
C334     C      0.632940000000     0.820760000000     0.756620000000     0.405811   
C335     C      0.632100000000     0.882820000000     0.817050000000     0.404254   
C336     C      0.634290000000     0.881380000000     0.694400000000     0.403491   
C337     C      0.320580000000     0.382360000000     0.509760000000     0.405109   
C338     C      0.443260000000     0.382180000000     0.505780000000     0.40356    
C339     C      0.381820000000     0.320940000000     0.506540000000     0.405042   
C340     C      0.381960000000     0.443650000000     0.508800000000     0.403596   
C341     C      0.320380000000     0.382130000000     0.758450000000     0.405777   
C342     C      0.443190000000     0.381740000000     0.754630000000     0.403911   
C343     C      0.381360000000     0.320710000000     0.757810000000     0.406082   
C344     C      0.381880000000     0.443530000000     0.754980000000     0.404154   
C345     C      0.321020000000     0.632720000000     0.007940000000     0.400795   
C346     C      0.443730000000     0.632710000000     0.005570000000     0.399538   
C347     C      0.382460000000     0.694040000000     0.005270000000     0.400883   
C348     C      0.382250000000     0.571340000000     0.008290000000     0.399372   
C349     C      0.320960000000     0.632630000000     0.754570000000     0.405367   
C350     C      0.443680000000     0.632640000000     0.756130000000     0.403816   
C351     C      0.382370000000     0.693940000000     0.756440000000     0.40529    
C352     C      0.382200000000     0.571220000000     0.754400000000     0.403562   
C353     C      0.693690000000     0.382260000000     0.506770000000     0.405205   
C354     C      0.570960000000     0.382190000000     0.504770000000     0.403625   
C355     C      0.632340000000     0.320910000000     0.504270000000     0.405304   
C356     C      0.632410000000     0.443600000000     0.507150000000     0.403558   
C357     C      0.632670000000     0.320900000000     0.753200000000     0.405163   
C358     C      0.631960000000     0.443620000000     0.750940000000     0.403692   
C359     C      0.693620000000     0.382720000000     0.751550000000     0.405135   
C360     C      0.570870000000     0.381750000000     0.752490000000     0.403492   
C361     C      0.694130000000     0.632570000000     0.007190000000     0.400695   
C362     C      0.571410000000     0.632770000000     0.005300000000     0.399588   
C363     C      0.632830000000     0.694000000000     0.005090000000     0.40111    
C364     C      0.632740000000     0.571290000000     0.007400000000     0.399114   
C365     C      0.694060000000     0.632470000000     0.752830000000     0.405175   
C366     C      0.571360000000     0.632820000000     0.755370000000     0.403525   
C367     C      0.632820000000     0.693980000000     0.755840000000     0.40522    
C368     C      0.632540000000     0.571300000000     0.752130000000     0.403581   
C369     C      0.070970000000     0.382000000000     0.510190000000     0.404268   
C370     C      0.193800000000     0.382430000000     0.511820000000     0.405829   
C371     C      0.131870000000     0.383280000000     0.572490000000     0.404053   
C372     C      0.133050000000     0.381050000000     0.949840000000     0.403515   
C373     C      0.193690000000     0.381900000000     0.761140000000     0.405881   
C374     C      0.070860000000     0.382150000000     0.761040000000     0.404239   
C375     C      0.132480000000     0.380950000000     0.822500000000     0.403999   
C376     C      0.132270000000     0.383190000000     0.699850000000     0.403938   
C377     C      0.820480000000     0.382320000000     0.507050000000     0.405863   
C378     C      0.943330000000     0.382040000000     0.506360000000     0.404304   
C379     C      0.882390000000     0.383290000000     0.567790000000     0.404285   
C380     C      0.881240000000     0.381100000000     0.945130000000     0.403252   
C381     C      0.820380000000     0.382570000000     0.754500000000     0.4056     
C382     C      0.943190000000     0.382260000000     0.758040000000     0.404261   
C383     C      0.880350000000     0.381260000000     0.817730000000     0.403561   
C384     C      0.883070000000     0.383440000000     0.695100000000     0.404253   
C385     C      0.879210000000     0.353680000000     0.897510000000     0.030434   
C386     C      0.881920000000     0.407980000000     0.897480000000     0.0302456  
C387     C      0.881600000000     0.408030000000     0.865430000000     0.0301128  
C388     C      0.878900000000     0.353720000000     0.865310000000     0.0302976  
C389     C      0.884370000000     0.356530000000     0.615450000000     0.0301464  
C390     C      0.881600000000     0.410850000000     0.615330000000     0.0303271  
C391     C      0.881860000000     0.410890000000     0.647510000000     0.0304385  
C392     C      0.884630000000     0.356580000000     0.647480000000     0.0302234  
C393     C      0.023160000000     0.409380000000     0.759490000000     0.0305155  
C394     C      0.023070000000     0.355020000000     0.761000000000     0.030457   
C395     C      0.990870000000     0.355040000000     0.760180000000     0.0305051  
C396     C      0.990960000000     0.409400000000     0.758670000000     0.0305218  
C397     C      0.131620000000     0.407830000000     0.902180000000     0.0302989  
C398     C      0.134400000000     0.353520000000     0.902280000000     0.0304542  
C399     C      0.134190000000     0.353490000000     0.870090000000     0.0304105  
C400     C      0.131420000000     0.407800000000     0.870140000000     0.0301989  
C401     C      0.133430000000     0.410720000000     0.652280000000     0.0302569  
C402     C      0.130590000000     0.356410000000     0.652180000000     0.0300347  
C403     C      0.130450000000     0.356440000000     0.620130000000     0.0301816  
C404     C      0.133270000000     0.410740000000     0.620090000000     0.030414   
C405     C      0.023230000000     0.409160000000     0.009350000000     0.0301335  
C406     C      0.023260000000     0.354800000000     0.507890000000     0.0304739  
C407     C      0.991070000000     0.354810000000     0.506760000000     0.0304042  
C408     C      0.991050000000     0.409170000000     0.008220000000     0.0301926  
C409     C      0.773490000000     0.362570000000     0.734760000000     0.0318957  
C410     C      0.772690000000     0.403350000000     0.770800000000     0.0320253  
C411     C      0.740530000000     0.402460000000     0.771010000000     0.0319607  
C412     C      0.741330000000     0.363850000000     0.732670000000     0.0315619  
C413     C      0.629920000000     0.491170000000     0.777960000000     0.0302091  
C414     C      0.634140000000     0.491560000000     0.723900000000     0.0303878  
C415     C      0.634320000000     0.523860000000     0.724210000000     0.030313   
C416     C      0.630120000000     0.523280000000     0.778280000000     0.0300739  
C417     C      0.740940000000     0.363250000000     0.026500000000     0.0309576  
C418     C      0.741050000000     0.401820000000     0.488110000000     0.0318458  
C419     C      0.773190000000     0.402870000000     0.489260000000     0.031916   
C420     C      0.773140000000     0.362130000000     0.025360000000     0.0315206  
C421     C      0.634610000000     0.491240000000     0.534670000000     0.0303477  
C422     C      0.630390000000     0.491450000000     0.980600000000     0.0326813  
C423     C      0.630490000000     0.523560000000     0.980660000000     0.0326901  
C424     C      0.634710000000     0.523530000000     0.534730000000     0.0303204  
C425     C      0.491540000000     0.634610000000     0.783240000000     0.0303662  
C426     C      0.491300000000     0.630820000000     0.729140000000     0.0301587  
C427     C      0.523420000000     0.630900000000     0.728940000000     0.0301293  
C428     C      0.523810000000     0.634660000000     0.783040000000     0.0303257  
C429     C      0.491370000000     0.634660000000     0.978070000000     0.0328575  
C430     C      0.491570000000     0.630790000000     0.532170000000     0.03013    
C431     C      0.523690000000     0.630800000000     0.532100000000     0.0301557  
C432     C      0.523650000000     0.634690000000     0.978010000000     0.033035   
C433     C      0.272720000000     0.363470000000     0.739760000000     0.0322956  
C434     C      0.273540000000     0.400120000000     0.779980000000     0.0322799  
C435     C      0.241330000000     0.401280000000     0.779490000000     0.0321628  
C436     C      0.240600000000     0.362260000000     0.741550000000     0.032059   
C437     C      0.490440000000     0.382130000000     0.726540000000     0.0302928  
C438     C      0.491410000000     0.380950000000     0.780750000000     0.0302251  
C439     C      0.523570000000     0.380830000000     0.780240000000     0.0303977  
C440     C      0.522680000000     0.382250000000     0.726040000000     0.0301929  
C441     C      0.380360000000     0.491110000000     0.727320000000     0.0303647  
C442     C      0.383690000000     0.491430000000     0.781450000000     0.0301889  
C443     C      0.383810000000     0.523550000000     0.781290000000     0.0301684  
C444     C      0.380400000000     0.523400000000     0.727170000000     0.0303791  
C445     C      0.240840000000     0.402990000000     0.993460000000     0.0350565  
C446     C      0.241400000000     0.362320000000     0.529620000000     0.0319578  
C447     C      0.273620000000     0.363440000000     0.530290000000     0.0316436  
C448     C      0.272960000000     0.401940000000     0.991830000000     0.0343573  
C449     C      0.490740000000     0.380200000000     0.977920000000     0.0328501  
C450     C      0.491270000000     0.384160000000     0.532010000000     0.0300914  
C451     C      0.523370000000     0.384160000000     0.531750000000     0.0302214  
C452     C      0.523040000000     0.380220000000     0.977670000000     0.0329324  
C453     C      0.380250000000     0.491470000000     0.536070000000     0.0302669  
C454     C      0.383920000000     0.491330000000     0.981960000000     0.0327132  
C455     C      0.384010000000     0.523440000000     0.981830000000     0.0326933  
C456     C      0.380320000000     0.523760000000     0.535940000000     0.0303319  
C457     C      0.653010000000     0.773320000000     0.774900000000     0.0320505  
C458     C      0.612230000000     0.773570000000     0.738850000000     0.0318904  
C459     C      0.613200000000     0.741440000000     0.737610000000     0.0319697  
C460     C      0.651810000000     0.741110000000     0.775960000000     0.0316058  
C461     C      0.612430000000     0.773510000000     0.522720000000     0.031983   
C462     C      0.653060000000     0.773430000000     0.986500000000     0.0349619  
C463     C      0.651840000000     0.741240000000     0.985280000000     0.0341485  
C464     C      0.613400000000     0.741370000000     0.523800000000     0.031906   
C465     C      0.604620000000     0.881650000000     0.896810000000     0.0306999  
C466     C      0.658930000000     0.884330000000     0.896730000000     0.0304866  
C467     C      0.658930000000     0.884380000000     0.864690000000     0.0302932  
C468     C      0.604610000000     0.881700000000     0.864620000000     0.0305294  
C469     C      0.607480000000     0.882620000000     0.614680000000     0.0300298  
C470     C      0.661790000000     0.879820000000     0.614620000000     0.0301492  
C471     C      0.661780000000     0.879760000000     0.646820000000     0.0301423  
C472     C      0.607470000000     0.882570000000     0.646730000000     0.0300108  
C473     C      0.652880000000     0.241660000000     0.772600000000     0.0319853  
C474     C      0.612450000000     0.241200000000     0.736160000000     0.0320013  
C475     C      0.613470000000     0.273340000000     0.734690000000     0.0318682  
C476     C      0.651700000000     0.273860000000     0.773420000000     0.0316461  
C477     C      0.606190000000     0.023530000000     0.754960000000     0.0304575  
C478     C      0.660550000000     0.023550000000     0.753500000000     0.0304851  
C479     C      0.660570000000     0.991340000000     0.753730000000     0.0304561  
C480     C      0.606210000000     0.991340000000     0.755200000000     0.0305964  
C481     C      0.612020000000     0.241290000000     0.521510000000     0.0319475  
C482     C      0.652650000000     0.241590000000     0.985300000000     0.0350256  
C483     C      0.651400000000     0.273790000000     0.984240000000     0.0341209  
C484     C      0.612940000000     0.273430000000     0.522740000000     0.0318811  
C485     C      0.658780000000     0.130820000000     0.895350000000     0.030339   
C486     C      0.604460000000     0.133430000000     0.895400000000     0.0306246  
C487     C      0.604470000000     0.133520000000     0.863210000000     0.0304867  
C488     C      0.658790000000     0.130910000000     0.863310000000     0.0303396  
C489     C      0.607340000000     0.132010000000     0.613300000000     0.0301114  
C490     C      0.661640000000     0.134920000000     0.613210000000     0.0301565  
C491     C      0.661650000000     0.134820000000     0.645400000000     0.0302399  
C492     C      0.607350000000     0.131920000000     0.645350000000     0.0300565  
C493     C      0.606190000000     0.023530000000     0.004900000000     0.0301279  
C494     C      0.660550000000     0.023590000000     0.506360000000     0.0305034  
C495     C      0.660570000000     0.991370000000     0.506700000000     0.0303621  
C496     C      0.606210000000     0.991340000000     0.005240000000     0.0302353  
C497     C      0.241450000000     0.652960000000     0.736430000000     0.0320401  
C498     C      0.241520000000     0.612340000000     0.772650000000     0.0320328  
C499     C      0.273670000000     0.613260000000     0.773550000000     0.0319393  
C500     C      0.273630000000     0.651700000000     0.735030000000     0.0316     
C501     C      0.241520000000     0.653030000000     0.526180000000     0.0318908  
C502     C      0.241570000000     0.612200000000     0.990180000000     0.0349675  
C503     C      0.273720000000     0.613130000000     0.989250000000     0.0344181  
C504     C      0.273710000000     0.651790000000     0.527550000000     0.031619   
C505     C      0.132810000000     0.607490000000     0.865220000000     0.0302054  
C506     C      0.135570000000     0.661800000000     0.865150000000     0.0303184  
C507     C      0.135630000000     0.661800000000     0.897350000000     0.030414   
C508     C      0.132870000000     0.607490000000     0.897270000000     0.0301784  
C509     C      0.132870000000     0.604630000000     0.615160000000     0.0304003  
C510     C      0.130170000000     0.658940000000     0.615220000000     0.0302679  
C511     C      0.130190000000     0.658950000000     0.647270000000     0.0300895  
C512     C      0.132900000000     0.604630000000     0.647340000000     0.030395   
C513     C      0.773630000000     0.652850000000     0.734930000000     0.0319294  
C514     C      0.773450000000     0.611880000000     0.770760000000     0.0320243  
C515     C      0.741300000000     0.612750000000     0.771520000000     0.0318864  
C516     C      0.741440000000     0.651580000000     0.733390000000     0.0316113  
C517     C      0.991430000000     0.606260000000     0.756340000000     0.0305039  
C518     C      0.991380000000     0.660620000000     0.757770000000     0.0305053  
C519     C      0.023600000000     0.660630000000     0.757950000000     0.0304917  
C520     C      0.023620000000     0.606270000000     0.756510000000     0.0305795  
C521     C      0.773540000000     0.612150000000     0.489140000000     0.0320007  
C522     C      0.773660000000     0.652860000000     0.025270000000     0.0314592  
C523     C      0.741480000000     0.651600000000     0.026720000000     0.0309683  
C524     C      0.741390000000     0.613070000000     0.488290000000     0.0318598  
C525     C      0.879280000000     0.661690000000     0.864160000000     0.0303694  
C526     C      0.882050000000     0.607390000000     0.864240000000     0.0302105  
C527     C      0.882130000000     0.607390000000     0.896290000000     0.0301803  
C528     C      0.879350000000     0.661700000000     0.896360000000     0.0303398  
C529     C      0.885020000000     0.658860000000     0.614250000000     0.0301909  
C530     C      0.882350000000     0.604540000000     0.614170000000     0.0303285  
C531     C      0.882390000000     0.604540000000     0.646350000000     0.030521   
C532     C      0.885070000000     0.658850000000     0.646280000000     0.0301463  
C533     C      0.991490000000     0.606250000000     0.005010000000     0.0302062  
C534     C      0.991460000000     0.660610000000     0.503570000000     0.0304174  
C535     C      0.023680000000     0.660620000000     0.503800000000     0.0305071  
C536     C      0.023670000000     0.606260000000     0.005240000000     0.0300972  
C537     C      0.400720000000     0.241280000000     0.777060000000     0.0321833  
C538     C      0.361190000000     0.241310000000     0.739630000000     0.0320333  
C539     C      0.362300000000     0.273460000000     0.738570000000     0.0322605  
C540     C      0.399480000000     0.273470000000     0.778320000000     0.032326   
C541     C      0.361310000000     0.241550000000     0.988100000000     0.0350031  
C542     C      0.402560000000     0.241390000000     0.523610000000     0.032003   
C543     C      0.401580000000     0.273540000000     0.524830000000     0.0317722  
C544     C      0.362460000000     0.273750000000     0.986990000000     0.0341148  
C545     C      0.408670000000     0.131780000000     0.865670000000     0.0304868  
C546     C      0.354290000000     0.131830000000     0.865730000000     0.0305162  
C547     C      0.354370000000     0.131820000000     0.897850000000     0.0305226  
C548     C      0.408750000000     0.131980000000     0.897780000000     0.0305793  
C549     C      0.408800000000     0.133830000000     0.615700000000     0.0301583  
C550     C      0.354420000000     0.133880000000     0.615700000000     0.030115   
C551     C      0.354470000000     0.133810000000     0.647820000000     0.0301108  
C552     C      0.408850000000     0.134000000000     0.647820000000     0.0301088  
C553     C      0.362320000000     0.773400000000     0.775070000000     0.0320182  
C554     C      0.402890000000     0.773430000000     0.738790000000     0.0320742  
C555     C      0.401850000000     0.741280000000     0.737680000000     0.031878   
C556     C      0.363470000000     0.741210000000     0.776260000000     0.0316663  
C557     C      0.409130000000     0.991360000000     0.755080000000     0.0304932  
C558     C      0.354740000000     0.991220000000     0.755180000000     0.0304916  
C559     C      0.354670000000     0.023420000000     0.755460000000     0.0305516  
C560     C      0.409050000000     0.023560000000     0.755210000000     0.0305275  
C561     C      0.362380000000     0.773430000000     0.486390000000     0.0319605  
C562     C      0.403090000000     0.773570000000     0.022520000000     0.0315237  
C563     C      0.402080000000     0.741430000000     0.023700000000     0.0312434  
C564     C      0.363540000000     0.741240000000     0.485280000000     0.0316315  
C565     C      0.356450000000     0.884440000000     0.896770000000     0.0304103  
C566     C      0.410770000000     0.881840000000     0.896870000000     0.0306927  
C567     C      0.410790000000     0.881780000000     0.864680000000     0.0305071  
C568     C      0.356470000000     0.884380000000     0.864730000000     0.0303786  
C569     C      0.353540000000     0.879680000000     0.614670000000     0.0300794  
C570     C      0.407850000000     0.882470000000     0.614720000000     0.0300491  
C571     C      0.407860000000     0.882480000000     0.646770000000     0.0300311  
C572     C      0.353560000000     0.879700000000     0.646870000000     0.0303034  
C573     C      0.354520000000     0.991310000000     0.507880000000     0.0304868  
C574     C      0.408880000000     0.991440000000     0.006280000000     0.0301013  
C575     C      0.408810000000     0.023640000000     0.006470000000     0.0302513  
C576     C      0.354450000000     0.023530000000     0.508090000000     0.0304252  
Cu1      Cu     0.353680000000     0.882010000000     0.505060000000     0.847284   
Cu2      Cu     0.410550000000     0.882270000000     0.006400000000     0.846011   
Cu3      Cu     0.353750000000     0.881970000000     0.256470000000     0.848051   
Cu4      Cu     0.410630000000     0.882130000000     0.255100000000     0.848444   
Cu5      Cu     0.353170000000     0.132860000000     0.506440000000     0.847745   
Cu6      Cu     0.410070000000     0.132790000000     0.007030000000     0.846084   
Cu7      Cu     0.353080000000     0.132620000000     0.256440000000     0.849481   
Cu8      Cu     0.409980000000     0.132840000000     0.257130000000     0.847223   
Cu9      Cu     0.882130000000     0.661580000000     0.505960000000     0.847147   
Cu10     Cu     0.882330000000     0.604710000000     0.504640000000     0.849128   
Cu11     Cu     0.882050000000     0.661560000000     0.254560000000     0.846893   
Cu12     Cu     0.882290000000     0.604690000000     0.255880000000     0.849259   
Cu13     Cu     0.133000000000     0.661660000000     0.506940000000     0.847001   
Cu14     Cu     0.132820000000     0.604790000000     0.505620000000     0.849241   
Cu15     Cu     0.132940000000     0.661670000000     0.255560000000     0.847215   
Cu16     Cu     0.132760000000     0.604800000000     0.256880000000     0.849148   
Cu17     Cu     0.604590000000     0.132670000000     0.504960000000     0.848928   
Cu18     Cu     0.661470000000     0.132930000000     0.003630000000     0.844192   
Cu19     Cu     0.604670000000     0.132690000000     0.253670000000     0.84869    
Cu20     Cu     0.661540000000     0.132890000000     0.255000000000     0.847582   
Cu21     Cu     0.604790000000     0.882180000000     0.506340000000     0.848829   
Cu22     Cu     0.661660000000     0.882040000000     0.505020000000     0.847182   
Cu23     Cu     0.604760000000     0.882190000000     0.255090000000     0.849082   
Cu24     Cu     0.661630000000     0.882000000000     0.256410000000     0.846956   
Cu25     Cu     0.380730000000     0.382920000000     0.479430000000     0.846397   
Cu26     Cu     0.382920000000     0.381490000000     0.036000000000     0.843168   
Cu27     Cu     0.380540000000     0.381190000000     0.228040000000     0.846269   
Cu28     Cu     0.382830000000     0.382850000000     0.284800000000     0.851536   
Cu29     Cu     0.383030000000     0.633660000000     0.035070000000     0.842449   
Cu30     Cu     0.381540000000     0.631900000000     0.478480000000     0.847381   
Cu31     Cu     0.381660000000     0.632010000000     0.283680000000     0.847498   
Cu32     Cu     0.382790000000     0.633340000000     0.227070000000     0.846403   
Cu33     Cu     0.631780000000     0.381310000000     0.034030000000     0.843393   
Cu34     Cu     0.633060000000     0.383010000000     0.477430000000     0.846303   
Cu35     Cu     0.631840000000     0.381430000000     0.223640000000     0.841151   
Cu36     Cu     0.632830000000     0.382900000000     0.280260000000     0.852464   
Cu37     Cu     0.633490000000     0.632010000000     0.477950000000     0.847532   
Cu38     Cu     0.632230000000     0.633460000000     0.034560000000     0.842607   
Cu39     Cu     0.632020000000     0.633760000000     0.225740000000     0.845809   
Cu40     Cu     0.633570000000     0.631710000000     0.282310000000     0.847715   
Cu41     Cu     0.132570000000     0.353740000000     0.011830000000     0.844394   
Cu42     Cu     0.132370000000     0.410610000000     0.510500000000     0.848859   
Cu43     Cu     0.132440000000     0.410490000000     0.261860000000     0.847168   
Cu44     Cu     0.132300000000     0.353620000000     0.260500000000     0.848925   
Cu45     Cu     0.881760000000     0.353740000000     0.007140000000     0.844376   
Cu46     Cu     0.881870000000     0.410610000000     0.005820000000     0.845469   
Cu47     Cu     0.881640000000     0.353930000000     0.255730000000     0.847291   
Cu48     Cu     0.881760000000     0.410800000000     0.257050000000     0.848553   
Cu49     Cu     0.353680000000     0.882010000000     0.005060000000     0.844197   
Cu50     Cu     0.410550000000     0.882270000000     0.506400000000     0.848877   
Cu51     Cu     0.353750000000     0.881970000000     0.756470000000     0.848181   
Cu52     Cu     0.410630000000     0.882130000000     0.755100000000     0.848444   
Cu53     Cu     0.353170000000     0.132860000000     0.006440000000     0.844686   
Cu54     Cu     0.410070000000     0.132790000000     0.507030000000     0.848976   
Cu55     Cu     0.353080000000     0.132620000000     0.756440000000     0.849617   
Cu56     Cu     0.409980000000     0.132840000000     0.757140000000     0.84723    
Cu57     Cu     0.882130000000     0.661580000000     0.005960000000     0.844172   
Cu58     Cu     0.882330000000     0.604710000000     0.004640000000     0.8461     
Cu59     Cu     0.882050000000     0.661560000000     0.754560000000     0.847044   
Cu60     Cu     0.882290000000     0.604690000000     0.755880000000     0.849264   
Cu61     Cu     0.133000000000     0.661660000000     0.006940000000     0.844031   
Cu62     Cu     0.132820000000     0.604790000000     0.005620000000     0.846206   
Cu63     Cu     0.132940000000     0.661670000000     0.755560000000     0.847364   
Cu64     Cu     0.132760000000     0.604800000000     0.756880000000     0.849148   
Cu65     Cu     0.604590000000     0.132670000000     0.004960000000     0.846078   
Cu66     Cu     0.661470000000     0.132930000000     0.503640000000     0.84724    
Cu67     Cu     0.604670000000     0.132690000000     0.753670000000     0.848688   
Cu68     Cu     0.661540000000     0.132890000000     0.755000000000     0.847721   
Cu69     Cu     0.604790000000     0.882180000000     0.006340000000     0.845962   
Cu70     Cu     0.661660000000     0.882040000000     0.005020000000     0.844098   
Cu71     Cu     0.604760000000     0.882190000000     0.755090000000     0.849195   
Cu72     Cu     0.661630000000     0.882000000000     0.756410000000     0.847205   
Cu73     Cu     0.380730000000     0.382920000000     0.979430000000     0.848596   
Cu74     Cu     0.382920000000     0.381490000000     0.536000000000     0.846837   
Cu75     Cu     0.380540000000     0.381190000000     0.728040000000     0.846277   
Cu76     Cu     0.382830000000     0.382850000000     0.784800000000     0.85161    
Cu77     Cu     0.383030000000     0.633660000000     0.535070000000     0.846253   
Cu78     Cu     0.381550000000     0.631900000000     0.978480000000     0.849637   
Cu79     Cu     0.381660000000     0.632010000000     0.783680000000     0.847557   
Cu80     Cu     0.382790000000     0.633340000000     0.727070000000     0.846365   
Cu81     Cu     0.631780000000     0.381310000000     0.534030000000     0.847229   
Cu82     Cu     0.633060000000     0.383010000000     0.977430000000     0.848542   
Cu83     Cu     0.631840000000     0.381430000000     0.723640000000     0.841114   
Cu84     Cu     0.632830000000     0.382900000000     0.780260000000     0.852519   
Cu85     Cu     0.633490000000     0.632010000000     0.977950000000     0.849773   
Cu86     Cu     0.632230000000     0.633460000000     0.534560000000     0.846438   
Cu87     Cu     0.632020000000     0.633760000000     0.725740000000     0.84575    
Cu88     Cu     0.633570000000     0.631710000000     0.782310000000     0.84774    
Cu89     Cu     0.132570000000     0.353740000000     0.511830000000     0.847356   
Cu90     Cu     0.132370000000     0.410610000000     0.010500000000     0.84586    
Cu91     Cu     0.132440000000     0.410490000000     0.761860000000     0.847171   
Cu92     Cu     0.132300000000     0.353620000000     0.760500000000     0.849067   
Cu93     Cu     0.881760000000     0.353740000000     0.507140000000     0.847337   
Cu94     Cu     0.881870000000     0.410610000000     0.505820000000     0.848492   
Cu95     Cu     0.881640000000     0.353930000000     0.755730000000     0.847429   
Cu96     Cu     0.881760000000     0.410800000000     0.757050000000     0.848554   
H1       H      0.878230000000     0.331630000000     0.409210000000     0.0385083  
H2       H      0.883120000000     0.430100000000     0.409050000000     0.0385175  
H3       H      0.882600000000     0.430180000000     0.353900000000     0.0385303  
H4       H      0.877720000000     0.331700000000     0.353570000000     0.0385215  
H5       H      0.885420000000     0.334390000000     0.103910000000     0.038641   
H6       H      0.880380000000     0.432870000000     0.103590000000     0.0386966  
H7       H      0.880790000000     0.432940000000     0.159200000000     0.0387091  
H8       H      0.885840000000     0.334460000000     0.159060000000     0.0386812  
H9       H      0.034860000000     0.431470000000     0.259150000000     0.0385995  
H10      H      0.034710000000     0.332910000000     0.261890000000     0.0386633  
H11      H      0.979170000000     0.332950000000     0.260490000000     0.038605   
H12      H      0.979330000000     0.431510000000     0.257760000000     0.0386215  
H13      H      0.130550000000     0.429970000000     0.413720000000     0.0384984  
H14      H      0.135580000000     0.331500000000     0.414010000000     0.0386151  
H15      H      0.135250000000     0.331450000000     0.358380000000     0.038632   
H16      H      0.130220000000     0.429920000000     0.358580000000     0.0385862  
H17      H      0.134630000000     0.432740000000     0.164010000000     0.0387198  
H18      H      0.129490000000     0.334280000000     0.163720000000     0.0386358  
H19      H      0.129250000000     0.334320000000     0.108570000000     0.0385895  
H20      H      0.134370000000     0.432790000000     0.108380000000     0.0386572  
H21      H      0.034870000000     0.431260000000     0.510330000000     0.0386498  
H22      H      0.034950000000     0.332690000000     0.007680000000     0.038192   
H23      H      0.979400000000     0.332720000000     0.005790000000     0.0382161  
H24      H      0.979390000000     0.431280000000     0.508440000000     0.0386243  
H25      H      0.785820000000     0.346270000000     0.220380000000     0.0360567  
H26      H      0.784310000000     0.419510000000     0.285920000000     0.0361345  
H27      H      0.728240000000     0.418250000000     0.285990000000     0.036283   
H28      H      0.729650000000     0.348100000000     0.217180000000     0.0361435  
H29      H      0.628150000000     0.479420000000     0.299900000000     0.0387801  
H30      H      0.635790000000     0.479980000000     0.201860000000     0.0386886  
H31      H      0.636090000000     0.535830000000     0.202390000000     0.0387201  
H32      H      0.628470000000     0.534640000000     0.300430000000     0.0387514  
H33      H      0.728910000000     0.347490000000     0.541710000000     0.0363224  
H34      H      0.729110000000     0.417570000000     0.972820000000     0.0363895  
H35      H      0.785190000000     0.419060000000     0.974470000000     0.0364128  
H36      H      0.785110000000     0.345890000000     0.540110000000     0.0361044  
H37      H      0.636300000000     0.479430000000     0.056580000000     0.0387624  
H38      H      0.628640000000     0.479930000000     0.458540000000     0.0387528  
H39      H      0.628800000000     0.535180000000     0.458650000000     0.0387599  
H40      H      0.636450000000     0.535250000000     0.056690000000     0.0387665  
H41      H      0.479920000000     0.636120000000     0.305260000000     0.0387541  
H42      H      0.479580000000     0.629260000000     0.207160000000     0.0387294  
H43      H      0.534880000000     0.629380000000     0.206820000000     0.0386894  
H44      H      0.535700000000     0.636210000000     0.304920000000     0.0388143  
H45      H      0.479570000000     0.636240000000     0.456150000000     0.0388023  
H46      H      0.480030000000     0.629200000000     0.054240000000     0.038758   
H47      H      0.535320000000     0.629230000000     0.054120000000     0.0387473  
H48      H      0.535360000000     0.636280000000     0.456030000000     0.0387421  
H49      H      0.284390000000     0.348510000000     0.223490000000     0.0350182  
H50      H      0.285890000000     0.415130000000     0.295690000000     0.0354762  
H51      H      0.229610000000     0.416790000000     0.295190000000     0.0356068  
H52      H      0.228310000000     0.346760000000     0.226270000000     0.0356953  
H53      H      0.478360000000     0.382650000000     0.204720000000     0.0383737  
H54      H      0.480160000000     0.380430000000     0.303010000000     0.0389714  
H55      H      0.535580000000     0.380300000000     0.302110000000     0.0387469  
H56      H      0.534020000000     0.382800000000     0.203820000000     0.0385945  
H57      H      0.378970000000     0.479250000000     0.205410000000     0.038767   
H58      H      0.385030000000     0.479960000000     0.303560000000     0.0386883  
H59      H      0.385210000000     0.535220000000     0.303300000000     0.0387193  
H60      H      0.379060000000     0.535060000000     0.205160000000     0.0387263  
H61      H      0.228650000000     0.419150000000     0.478790000000     0.0361776  
H62      H      0.229630000000     0.346110000000     0.044560000000     0.0357604  
H63      H      0.285870000000     0.347700000000     0.045350000000     0.0360344  
H64      H      0.284670000000     0.417650000000     0.476320000000     0.0362969  
H65      H      0.478790000000     0.378590000000     0.456080000000     0.0385339  
H66      H      0.479880000000     0.385770000000     0.054150000000     0.0389923  
H67      H      0.535110000000     0.385770000000     0.053720000000     0.0389131  
H68      H      0.534650000000     0.378610000000     0.455640000000     0.03858    
H69      H      0.378730000000     0.479790000000     0.058060000000     0.0387685  
H70      H      0.385390000000     0.479670000000     0.459950000000     0.0387702  
H71      H      0.385540000000     0.534920000000     0.459730000000     0.0387481  
H72      H      0.378850000000     0.535610000000     0.057840000000     0.038714   
H73      H      0.669300000000     0.785220000000     0.289660000000     0.0360332  
H74      H      0.596060000000     0.785630000000     0.224100000000     0.0361597  
H75      H      0.597410000000     0.729600000000     0.222270000000     0.0362942  
H76      H      0.667580000000     0.728980000000     0.291090000000     0.0362452  
H77      H      0.596320000000     0.785510000000     0.037590000000     0.0359713  
H78      H      0.669280000000     0.785390000000     0.471720000000     0.0360559  
H79      H      0.667530000000     0.729190000000     0.470010000000     0.036271   
H80      H      0.597670000000     0.729440000000     0.039140000000     0.0361868  
H81      H      0.582580000000     0.880540000000     0.408530000000     0.0387311  
H82      H      0.681070000000     0.885410000000     0.408280000000     0.0387258  
H83      H      0.681050000000     0.885480000000     0.353130000000     0.0387742  
H84      H      0.582570000000     0.880610000000     0.352910000000     0.0387591  
H85      H      0.585350000000     0.883780000000     0.103130000000     0.0384882  
H86      H      0.683820000000     0.878700000000     0.102900000000     0.0384189  
H87      H      0.683810000000     0.878620000000     0.158540000000     0.0384723  
H88      H      0.585340000000     0.883690000000     0.158280000000     0.0385053  
H89      H      0.669010000000     0.229860000000     0.287600000000     0.0359968  
H90      H      0.596400000000     0.229040000000     0.221360000000     0.0362418  
H91      H      0.597830000000     0.285110000000     0.219150000000     0.036366   
H92      H      0.667300000000     0.286070000000     0.288660000000     0.0362776  
H93      H      0.584080000000     0.035180000000     0.255480000000     0.0386823  
H94      H      0.682640000000     0.035240000000     0.252830000000     0.0385971  
H95      H      0.682670000000     0.979660000000     0.253230000000     0.0385905  
H96      H      0.584100000000     0.979670000000     0.255880000000     0.0386476  
H97      H      0.595910000000     0.229200000000     0.036320000000     0.0360603  
H98      H      0.668900000000     0.229710000000     0.470480000000     0.0360161  
H99      H      0.667080000000     0.285920000000     0.469030000000     0.0362488  
H100     H      0.597200000000     0.285260000000     0.038130000000     0.0362496  
H101     H      0.680900000000     0.129740000000     0.406910000000     0.0387619  
H102     H      0.582410000000     0.134470000000     0.407110000000     0.0386194  
H103     H      0.582440000000     0.134610000000     0.351490000000     0.038597   
H104     H      0.680930000000     0.129880000000     0.351760000000     0.0387353  
H105     H      0.585200000000     0.130860000000     0.101760000000     0.0385696  
H106     H      0.683670000000     0.136120000000     0.101480000000     0.0384237  
H107     H      0.683700000000     0.135970000000     0.157110000000     0.0384553  
H108     H      0.585230000000     0.130710000000     0.156910000000     0.0386439  
H109     H      0.584070000000     0.035160000000     0.504190000000     0.0386559  
H110     H      0.682640000000     0.035290000000     0.006830000000     0.0381974  
H111     H      0.682670000000     0.979710000000     0.007400000000     0.0382343  
H112     H      0.584100000000     0.979660000000     0.504750000000     0.0386296  
H113     H      0.229410000000     0.669200000000     0.221730000000     0.0360397  
H114     H      0.229580000000     0.596240000000     0.287590000000     0.0361306  
H115     H      0.285670000000     0.597510000000     0.288810000000     0.0362854  
H116     H      0.285610000000     0.667370000000     0.219690000000     0.0362567  
H117     H      0.229490000000     0.669340000000     0.040800000000     0.0359302  
H118     H      0.229640000000     0.596020000000     0.475330000000     0.0361576  
H119     H      0.285700000000     0.597310000000     0.474060000000     0.0363045  
H120     H      0.285700000000     0.667560000000     0.042780000000     0.0361408  
H121     H      0.131670000000     0.585360000000     0.353670000000     0.0385165  
H122     H      0.136660000000     0.683840000000     0.353430000000     0.0385164  
H123     H      0.136750000000     0.683830000000     0.409070000000     0.038522   
H124     H      0.131760000000     0.585360000000     0.408820000000     0.0385356  
H125     H      0.133980000000     0.582590000000     0.103440000000     0.0386567  
H126     H      0.129060000000     0.681070000000     0.103670000000     0.0386195  
H127     H      0.129110000000     0.681080000000     0.158820000000     0.0387048  
H128     H      0.134030000000     0.582590000000     0.159060000000     0.038752   
H129     H      0.785700000000     0.669240000000     0.220440000000     0.0360759  
H130     H      0.785320000000     0.595650000000     0.285600000000     0.0361755  
H131     H      0.729270000000     0.596850000000     0.286600000000     0.0363426  
H132     H      0.729500000000     0.667410000000     0.218180000000     0.0362344  
H133     H      0.979780000000     0.584140000000     0.255690000000     0.0386594  
H134     H      0.979680000000     0.682710000000     0.258280000000     0.0385742  
H135     H      0.035280000000     0.682730000000     0.258580000000     0.0385864  
H136     H      0.035280000000     0.584160000000     0.255980000000     0.0386447  
H137     H      0.785450000000     0.596020000000     0.974220000000     0.0364028  
H138     H      0.785720000000     0.669130000000     0.539920000000     0.0360805  
H139     H      0.729520000000     0.667320000000     0.542030000000     0.0362459  
H140     H      0.729380000000     0.597300000000     0.973070000000     0.0363909  
H141     H      0.878150000000     0.683730000000     0.352430000000     0.0385081  
H142     H      0.883160000000     0.585260000000     0.352690000000     0.0385036  
H143     H      0.883290000000     0.585270000000     0.407840000000     0.0385286  
H144     H      0.878270000000     0.683740000000     0.408080000000     0.0385299  
H145     H      0.886100000000     0.680990000000     0.102690000000     0.0386336  
H146     H      0.881230000000     0.582500000000     0.102450000000     0.0386729  
H147     H      0.881300000000     0.582490000000     0.158070000000     0.038704   
H148     H      0.886170000000     0.680980000000     0.157850000000     0.0386813  
H149     H      0.979830000000     0.584130000000     0.505530000000     0.0386206  
H150     H      0.979770000000     0.682700000000     0.002920000000     0.0381917  
H151     H      0.035360000000     0.682720000000     0.003310000000     0.0381712  
H152     H      0.035330000000     0.584160000000     0.505910000000     0.0386579  
H153     H      0.416480000000     0.229240000000     0.292270000000     0.0359718  
H154     H      0.345520000000     0.229340000000     0.224280000000     0.0356088  
H155     H      0.347130000000     0.285460000000     0.222750000000     0.0348958  
H156     H      0.414690000000     0.285500000000     0.294080000000     0.035778   
H157     H      0.344840000000     0.229620000000     0.473570000000     0.0361419  
H158     H      0.418950000000     0.229360000000     0.038150000000     0.0360619  
H159     H      0.417560000000     0.285430000000     0.039920000000     0.0363407  
H160     H      0.346500000000     0.285830000000     0.472020000000     0.0364726  
H161     H      0.430770000000     0.131780000000     0.354010000000     0.0388529  
H162     H      0.332170000000     0.131800000000     0.354110000000     0.038591   
H163     H      0.332270000000     0.131840000000     0.409510000000     0.0387975  
H164     H      0.430880000000     0.132060000000     0.409400000000     0.0386209  
H165     H      0.430910000000     0.133830000000     0.104050000000     0.0384507  
H166     H      0.332310000000     0.133840000000     0.104070000000     0.0383233  
H167     H      0.332360000000     0.133780000000     0.159460000000     0.0385598  
H168     H      0.430960000000     0.134040000000     0.159470000000     0.0383498  
H169     H      0.346140000000     0.785390000000     0.289870000000     0.0360346  
H170     H      0.419010000000     0.785410000000     0.223900000000     0.0360393  
H171     H      0.417540000000     0.729330000000     0.222320000000     0.0362087  
H172     H      0.347790000000     0.729180000000     0.291560000000     0.0362816  
H173     H      0.431270000000     0.979740000000     0.254950000000     0.0386041  
H174     H      0.332660000000     0.979500000000     0.255190000000     0.0386041  
H175     H      0.332530000000     0.035040000000     0.255610000000     0.0386362  
H176     H      0.431130000000     0.035290000000     0.255200000000     0.0385871  
H177     H      0.346130000000     0.785380000000     0.971630000000     0.0364002  
H178     H      0.419250000000     0.785590000000     0.537330000000     0.0361115  
H179     H      0.417830000000     0.729530000000     0.539040000000     0.0362664  
H180     H      0.347800000000     0.729160000000     0.970080000000     0.0364489  
H181     H      0.334310000000     0.885520000000     0.408310000000     0.0387426  
H182     H      0.432810000000     0.880780000000     0.408590000000     0.0387225  
H183     H      0.432830000000     0.880680000000     0.352970000000     0.0387551  
H184     H      0.334340000000     0.885420000000     0.353160000000     0.0387541  
H185     H      0.331500000000     0.878560000000     0.102950000000     0.0384139  
H186     H      0.429980000000     0.883600000000     0.103170000000     0.0384562  
H187     H      0.430000000000     0.883620000000     0.158310000000     0.0384981  
H188     H      0.331520000000     0.878590000000     0.158600000000     0.0384294  
H189     H      0.332450000000     0.979580000000     0.008450000000     0.0382277  
H190     H      0.431010000000     0.979840000000     0.505540000000     0.038644   
H191     H      0.430900000000     0.035340000000     0.505880000000     0.0386041  
H192     H      0.332330000000     0.035160000000     0.008800000000     0.0382094  
H193     H      0.878230000000     0.331630000000     0.909210000000     0.0389897  
H194     H      0.883120000000     0.430100000000     0.909050000000     0.038945   
H195     H      0.882600000000     0.430180000000     0.853900000000     0.0386736  
H196     H      0.877720000000     0.331700000000     0.853570000000     0.038726   
H197     H      0.885420000000     0.334390000000     0.603910000000     0.0387568  
H198     H      0.880380000000     0.432870000000     0.603590000000     0.0387746  
H199     H      0.880790000000     0.432940000000     0.659200000000     0.0387262  
H200     H      0.885840000000     0.334460000000     0.659060000000     0.0387545  
H201     H      0.034860000000     0.431470000000     0.759150000000     0.0386441  
H202     H      0.034710000000     0.332910000000     0.761890000000     0.0387762  
H203     H      0.979170000000     0.332950000000     0.760490000000     0.0387165  
H204     H      0.979330000000     0.431510000000     0.757760000000     0.0386646  
H205     H      0.130550000000     0.429970000000     0.913720000000     0.0389368  
H206     H      0.135580000000     0.331500000000     0.914010000000     0.0391038  
H207     H      0.135250000000     0.331450000000     0.858380000000     0.0388427  
H208     H      0.130220000000     0.429920000000     0.858580000000     0.0387366  
H209     H      0.134630000000     0.432740000000     0.664010000000     0.0387373  
H210     H      0.129490000000     0.334280000000     0.663720000000     0.0387086  
H211     H      0.129250000000     0.334320000000     0.608570000000     0.0386862  
H212     H      0.134370000000     0.432790000000     0.608380000000     0.0387297  
H213     H      0.034870000000     0.431260000000     0.010330000000     0.0383168  
H214     H      0.034950000000     0.332690000000     0.507680000000     0.0386034  
H215     H      0.979400000000     0.332720000000     0.505790000000     0.038632   
H216     H      0.979390000000     0.431280000000     0.008440000000     0.0382855  
H217     H      0.785820000000     0.346270000000     0.720380000000     0.0360982  
H218     H      0.784310000000     0.419510000000     0.785920000000     0.0361798  
H219     H      0.728240000000     0.418250000000     0.785980000000     0.0363234  
H220     H      0.729650000000     0.348100000000     0.717180000000     0.0361706  
H221     H      0.628150000000     0.479420000000     0.799900000000     0.0388128  
H222     H      0.635790000000     0.479980000000     0.701860000000     0.0386679  
H223     H      0.636090000000     0.535830000000     0.702400000000     0.038757   
H224     H      0.628470000000     0.534640000000     0.800430000000     0.0387916  
H225     H      0.728910000000     0.347490000000     0.041710000000     0.0362108  
H226     H      0.729110000000     0.417570000000     0.472820000000     0.0362826  
H227     H      0.785190000000     0.419060000000     0.474470000000     0.036117   
H228     H      0.785110000000     0.345890000000     0.040110000000     0.0359377  
H229     H      0.636300000000     0.479430000000     0.556580000000     0.0387545  
H230     H      0.628640000000     0.479930000000     0.958540000000     0.0385752  
H231     H      0.628800000000     0.535180000000     0.958650000000     0.0385793  
H232     H      0.636450000000     0.535250000000     0.556690000000     0.0387588  
H233     H      0.479920000000     0.636120000000     0.805260000000     0.0388096  
H234     H      0.479580000000     0.629260000000     0.707160000000     0.0387298  
H235     H      0.534880000000     0.629380000000     0.706820000000     0.0386957  
H236     H      0.535700000000     0.636210000000     0.804920000000     0.0388797  
H237     H      0.479570000000     0.636240000000     0.956150000000     0.038669   
H238     H      0.480030000000     0.629200000000     0.554240000000     0.0387361  
H239     H      0.535320000000     0.629230000000     0.554120000000     0.038714   
H240     H      0.535360000000     0.636280000000     0.956030000000     0.0386155  
H241     H      0.284390000000     0.348510000000     0.723490000000     0.0350458  
H242     H      0.285890000000     0.415130000000     0.795690000000     0.0355185  
H243     H      0.229610000000     0.416790000000     0.795190000000     0.0356598  
H244     H      0.228310000000     0.346760000000     0.726260000000     0.0357259  
H245     H      0.478360000000     0.382650000000     0.704720000000     0.0383695  
H246     H      0.480160000000     0.380430000000     0.803010000000     0.0390285  
H247     H      0.535580000000     0.380300000000     0.802110000000     0.0387993  
H248     H      0.534020000000     0.382800000000     0.703820000000     0.0385961  
H249     H      0.378970000000     0.479250000000     0.705410000000     0.038787   
H250     H      0.385030000000     0.479960000000     0.803560000000     0.0387024  
H251     H      0.385210000000     0.535220000000     0.803300000000     0.0387657  
H252     H      0.379060000000     0.535060000000     0.705160000000     0.0387308  
H253     H      0.228640000000     0.419150000000     0.978790000000     0.0364521  
H254     H      0.229630000000     0.346110000000     0.544560000000     0.0359301  
H255     H      0.285870000000     0.347700000000     0.545350000000     0.0361189  
H256     H      0.284680000000     0.417650000000     0.976320000000     0.0364491  
H257     H      0.478790000000     0.378590000000     0.956080000000     0.0384066  
H258     H      0.479880000000     0.385770000000     0.554150000000     0.0389607  
H259     H      0.535110000000     0.385770000000     0.553720000000     0.0388812  
H260     H      0.534650000000     0.378610000000     0.955640000000     0.0384538  
H261     H      0.378730000000     0.479790000000     0.558060000000     0.0387525  
H262     H      0.385390000000     0.479670000000     0.959950000000     0.0385937  
H263     H      0.385540000000     0.534920000000     0.959730000000     0.0385675  
H264     H      0.378850000000     0.535610000000     0.557840000000     0.0387387  
H265     H      0.669300000000     0.785220000000     0.789660000000     0.0361244  
H266     H      0.596060000000     0.785630000000     0.724100000000     0.0361877  
H267     H      0.597410000000     0.729600000000     0.722270000000     0.0362886  
H268     H      0.667570000000     0.728980000000     0.791090000000     0.0363273  
H269     H      0.596320000000     0.785510000000     0.537590000000     0.0360857  
H270     H      0.669280000000     0.785390000000     0.971720000000     0.0363836  
H271     H      0.667530000000     0.729190000000     0.970010000000     0.0364476  
H272     H      0.597670000000     0.729440000000     0.539140000000     0.0362463  
H273     H      0.582580000000     0.880540000000     0.908530000000     0.039196   
H274     H      0.681070000000     0.885410000000     0.908280000000     0.0391937  
H275     H      0.681050000000     0.885480000000     0.853130000000     0.0389764  
H276     H      0.582570000000     0.880610000000     0.852910000000     0.0389157  
H277     H      0.585350000000     0.883780000000     0.603130000000     0.0385116  
H278     H      0.683820000000     0.878710000000     0.602900000000     0.0385536  
H279     H      0.683810000000     0.878620000000     0.658540000000     0.038546   
H280     H      0.585340000000     0.883690000000     0.658280000000     0.0385074  
H281     H      0.669010000000     0.229860000000     0.787600000000     0.0360932  
H282     H      0.596400000000     0.229040000000     0.721360000000     0.0362412  
H283     H      0.597830000000     0.285110000000     0.719150000000     0.0363832  
H284     H      0.667300000000     0.286070000000     0.788660000000     0.0363356  
H285     H      0.584080000000     0.035180000000     0.755480000000     0.0387264  
H286     H      0.682640000000     0.035240000000     0.752830000000     0.0387021  
H287     H      0.682670000000     0.979660000000     0.753230000000     0.0386954  
H288     H      0.584100000000     0.979670000000     0.755880000000     0.0386918  
H289     H      0.595910000000     0.229200000000     0.536320000000     0.0361798  
H290     H      0.668900000000     0.229710000000     0.970480000000     0.0363272  
H291     H      0.667080000000     0.285920000000     0.969030000000     0.0364153  
H292     H      0.597200000000     0.285260000000     0.538130000000     0.0363161  
H293     H      0.680900000000     0.129740000000     0.906910000000     0.0392235  
H294     H      0.582410000000     0.134470000000     0.907110000000     0.0390792  
H295     H      0.582440000000     0.134610000000     0.851490000000     0.0387512  
H296     H      0.680930000000     0.129880000000     0.851760000000     0.0389355  
H297     H      0.585200000000     0.130860000000     0.601760000000     0.0385787  
H298     H      0.683670000000     0.136120000000     0.601480000000     0.0385578  
H299     H      0.683700000000     0.135970000000     0.657110000000     0.038536   
H300     H      0.585230000000     0.130710000000     0.656910000000     0.0386635  
H301     H      0.584070000000     0.035160000000     0.004190000000     0.0383029  
H302     H      0.682640000000     0.035290000000     0.506830000000     0.0385933  
H303     H      0.682670000000     0.979710000000     0.507400000000     0.0386283  
H304     H      0.584100000000     0.979660000000     0.004750000000     0.0382783  
H305     H      0.229410000000     0.669200000000     0.721720000000     0.0360719  
H306     H      0.229580000000     0.596240000000     0.787590000000     0.0361759  
H307     H      0.285670000000     0.597510000000     0.788810000000     0.0363226  
H308     H      0.285610000000     0.667370000000     0.719690000000     0.0362846  
H309     H      0.229490000000     0.669340000000     0.540800000000     0.0360892  
H310     H      0.229640000000     0.596020000000     0.975330000000     0.0364494  
H311     H      0.285700000000     0.597310000000     0.974060000000     0.0364101  
H312     H      0.285700000000     0.667560000000     0.542780000000     0.0362509  
H313     H      0.131670000000     0.585360000000     0.853670000000     0.0386576  
H314     H      0.136660000000     0.683840000000     0.853430000000     0.0387223  
H315     H      0.136760000000     0.683830000000     0.909070000000     0.0390038  
H316     H      0.131760000000     0.585360000000     0.908820000000     0.0389579  
H317     H      0.133980000000     0.582590000000     0.603440000000     0.0387361  
H318     H      0.129060000000     0.681070000000     0.603670000000     0.0387189  
H319     H      0.129110000000     0.681080000000     0.658820000000     0.0387804  
H320     H      0.134030000000     0.582590000000     0.659060000000     0.0387719  
H321     H      0.785700000000     0.669240000000     0.720440000000     0.0361179  
H322     H      0.785320000000     0.595650000000     0.785600000000     0.0362221  
H323     H      0.729270000000     0.596850000000     0.786600000000     0.0363795  
H324     H      0.729500000000     0.667410000000     0.718180000000     0.0362617  
H325     H      0.979780000000     0.584140000000     0.755690000000     0.0387102  
H326     H      0.979680000000     0.682710000000     0.758280000000     0.0386938  
H327     H      0.035280000000     0.682730000000     0.758580000000     0.0386999  
H328     H      0.035280000000     0.584160000000     0.755980000000     0.0386865  
H329     H      0.785450000000     0.596020000000     0.474220000000     0.0361093  
H330     H      0.785720000000     0.669130000000     0.039920000000     0.0359214  
H331     H      0.729520000000     0.667320000000     0.042030000000     0.0361345  
H332     H      0.729370000000     0.597300000000     0.473070000000     0.0362883  
H333     H      0.878150000000     0.683730000000     0.852440000000     0.0387059  
H334     H      0.883160000000     0.585260000000     0.852690000000     0.038646   
H335     H      0.883290000000     0.585270000000     0.907840000000     0.0389531  
H336     H      0.878270000000     0.683740000000     0.908080000000     0.0390102  
H337     H      0.886090000000     0.680990000000     0.602690000000     0.0387488  
H338     H      0.881230000000     0.582500000000     0.602450000000     0.038751   
H339     H      0.881300000000     0.582490000000     0.658070000000     0.0387237  
H340     H      0.886160000000     0.680980000000     0.657850000000     0.0387702  
H341     H      0.979830000000     0.584130000000     0.005530000000     0.0382882  
H342     H      0.979770000000     0.682700000000     0.502920000000     0.0386097  
H343     H      0.035360000000     0.682720000000     0.503310000000     0.0385893  
H344     H      0.035330000000     0.584160000000     0.005910000000     0.0383082  
H345     H      0.416480000000     0.229240000000     0.792270000000     0.036041   
H346     H      0.345520000000     0.229340000000     0.724280000000     0.0356485  
H347     H      0.347130000000     0.285460000000     0.722750000000     0.0349203  
H348     H      0.414690000000     0.285500000000     0.794080000000     0.0358402  
H349     H      0.344840000000     0.229610000000     0.973570000000     0.0364874  
H350     H      0.418960000000     0.229360000000     0.538150000000     0.0361695  
H351     H      0.417560000000     0.285430000000     0.539920000000     0.0364008  
H352     H      0.346500000000     0.285830000000     0.972020000000     0.0366313  
H353     H      0.430770000000     0.131780000000     0.854010000000     0.0390053  
H354     H      0.332160000000     0.131800000000     0.854110000000     0.038774   
H355     H      0.332270000000     0.131840000000     0.909510000000     0.0392488  
H356     H      0.430880000000     0.132060000000     0.909400000000     0.0390927  
H357     H      0.430910000000     0.133830000000     0.604050000000     0.038493   
H358     H      0.332310000000     0.133840000000     0.604070000000     0.0384547  
H359     H      0.332360000000     0.133780000000     0.659460000000     0.0386394  
H360     H      0.430960000000     0.134040000000     0.659460000000     0.0383455  
H361     H      0.346140000000     0.785390000000     0.789870000000     0.0361355  
H362     H      0.419010000000     0.785410000000     0.723900000000     0.0360363  
H363     H      0.417540000000     0.729330000000     0.722320000000     0.0362252  
H364     H      0.347790000000     0.729180000000     0.791560000000     0.036343   
H365     H      0.431270000000     0.979740000000     0.754950000000     0.0386461  
H366     H      0.332660000000     0.979500000000     0.755190000000     0.0387109  
H367     H      0.332530000000     0.035040000000     0.755610000000     0.038743   
H368     H      0.431130000000     0.035290000000     0.755200000000     0.0386296  
H369     H      0.346130000000     0.785380000000     0.471630000000     0.0360722  
H370     H      0.419250000000     0.785590000000     0.037330000000     0.0359961  
H371     H      0.417830000000     0.729530000000     0.039040000000     0.0362048  
H372     H      0.347800000000     0.729160000000     0.470080000000     0.0362733  
H373     H      0.334310000000     0.885520000000     0.908310000000     0.0392089  
H374     H      0.432810000000     0.880780000000     0.908590000000     0.0391877  
H375     H      0.432830000000     0.880680000000     0.852970000000     0.0389127  
H376     H      0.334340000000     0.885420000000     0.853160000000     0.0389557  
H377     H      0.331500000000     0.878560000000     0.602950000000     0.0385501  
H378     H      0.429980000000     0.883600000000     0.603170000000     0.0384968  
H379     H      0.430000000000     0.883620000000     0.658310000000     0.038497   
H380     H      0.331520000000     0.878590000000     0.658600000000     0.0385017  
H381     H      0.332450000000     0.979580000000     0.508450000000     0.038618   
H382     H      0.431010000000     0.979840000000     0.005540000000     0.0382943  
H383     H      0.430900000000     0.035340000000     0.005880000000     0.0382564  
H384     H      0.332340000000     0.035160000000     0.508800000000     0.0386151  
N1       N      0.880800000000     0.380830000000     0.413550000000    -0.175217   
N2       N      0.880190000000     0.380920000000     0.349310000000    -0.175181   
N3       N      0.882780000000     0.383630000000     0.099340000000    -0.175399   
N4       N      0.883280000000     0.383720000000     0.163540000000    -0.175418   
N5       N      0.039210000000     0.382190000000     0.260580000000    -0.175245   
N6       N      0.974830000000     0.382230000000     0.258950000000    -0.175273   
N7       N      0.133070000000     0.380720000000     0.418280000000    -0.175386   
N8       N      0.132680000000     0.380660000000     0.354060000000    -0.175373   
N9       N      0.132110000000     0.383520000000     0.168280000000    -0.175285   
N10      N      0.131820000000     0.383570000000     0.104060000000    -0.175307   
N11      N      0.039330000000     0.381970000000     0.009210000000    -0.175336   
N12      N      0.974970000000     0.382000000000     0.006990000000    -0.175401   
N13      N      0.788960000000     0.382790000000     0.253360000000    -0.176475   
N14      N      0.725050000000     0.383140000000     0.251520000000    -0.176424   
N15      N      0.631980000000     0.475270000000     0.250810000000    -0.175276   
N16      N      0.632340000000     0.539660000000     0.251440000000    -0.175281   
N17      N      0.725120000000     0.382490000000     0.007230000000    -0.177624   
N18      N      0.789050000000     0.382430000000     0.007250000000    -0.178352   
N19      N      0.632460000000     0.475250000000     0.007570000000    -0.176436   
N20      N      0.632650000000     0.539640000000     0.507690000000    -0.175204   
N21      N      0.475320000000     0.632680000000     0.256260000000    -0.175374   
N22      N      0.539710000000     0.632800000000     0.255860000000    -0.175275   
N23      N      0.475370000000     0.632720000000     0.505190000000    -0.175276   
N24      N      0.539770000000     0.632760000000     0.505050000000    -0.175396   
N25      N      0.288980000000     0.381870000000     0.259480000000    -0.17659    
N26      N      0.225110000000     0.381800000000     0.260780000000    -0.176508   
N27      N      0.474830000000     0.381600000000     0.253910000000    -0.17535    
N28      N      0.539220000000     0.381590000000     0.252910000000    -0.175238   
N29      N      0.381980000000     0.475180000000     0.254490000000    -0.175315   
N30      N      0.382140000000     0.539570000000     0.254190000000    -0.175257   
N31      N      0.225240000000     0.382590000000     0.011700000000    -0.178305   
N32      N      0.289160000000     0.382630000000     0.010740000000    -0.177544   
N33      N      0.474910000000     0.382170000000     0.005130000000    -0.176417   
N34      N      0.539310000000     0.382190000000     0.004620000000    -0.176498   
N35      N      0.382040000000     0.475300000000     0.009040000000    -0.176427   
N36      N      0.382200000000     0.539700000000     0.508780000000    -0.175296   
N37      N      0.632740000000     0.789330000000     0.256840000000    -0.176581   
N38      N      0.632540000000     0.725400000000     0.256620000000    -0.176452   
N39      N      0.632850000000     0.789350000000     0.504710000000    -0.176576   
N40      N      0.632630000000     0.725420000000     0.504600000000    -0.17652    
N41      N      0.631810000000     0.882910000000     0.412810000000    -0.175409   
N42      N      0.631800000000     0.883000000000     0.348610000000    -0.175363   
N43      N      0.634610000000     0.881300000000     0.098590000000    -0.175266   
N44      N      0.634590000000     0.881200000000     0.162830000000    -0.175293   
N45      N      0.632730000000     0.225550000000     0.254500000000    -0.176578   
N46      N      0.632590000000     0.289470000000     0.253830000000    -0.176409   
N47      N      0.633360000000     0.039640000000     0.254160000000    -0.175248   
N48      N      0.633390000000     0.975240000000     0.254620000000    -0.175366   
N49      N      0.632470000000     0.225560000000     0.003430000000    -0.178373   
N50      N      0.632170000000     0.289480000000     0.003630000000    -0.177668   
N51      N      0.631640000000     0.132120000000     0.411420000000    -0.175394   
N52      N      0.631670000000     0.132300000000     0.347210000000    -0.17542    
N53      N      0.634450000000     0.133470000000     0.097200000000    -0.175237   
N54      N      0.634480000000     0.133290000000     0.161430000000    -0.175357   
N55      N      0.633360000000     0.039650000000     0.505420000000    -0.175257   
N56      N      0.633390000000     0.975260000000     0.506080000000    -0.175257   
N57      N      0.225600000000     0.632780000000     0.254730000000    -0.176581   
N58      N      0.289530000000     0.632460000000     0.254250000000    -0.176459   
N59      N      0.225660000000     0.632750000000     0.507980000000    -0.176568   
N60      N      0.289590000000     0.632470000000     0.508400000000    -0.176432   
N61      N      0.134080000000     0.634620000000     0.349130000000    -0.175268   
N62      N      0.134190000000     0.634620000000     0.413370000000    -0.175312   
N63      N      0.131590000000     0.631820000000     0.099140000000    -0.175411   
N64      N      0.131650000000     0.631820000000     0.163350000000    -0.175322   
N65      N      0.789420000000     0.632530000000     0.253140000000    -0.176568   
N66      N      0.725490000000     0.632170000000     0.252390000000    -0.176423   
N67      N      0.975310000000     0.633430000000     0.256880000000    -0.175349   
N68      N      0.039700000000     0.633450000000     0.257220000000    -0.175314   
N69      N      0.789480000000     0.632640000000     0.506980000000    -0.176558   
N70      N      0.725560000000     0.632340000000     0.507550000000    -0.176419   
N71      N      0.880730000000     0.634510000000     0.348140000000    -0.175276   
N72      N      0.880870000000     0.634520000000     0.412380000000    -0.175227   
N73      N      0.883570000000     0.631740000000     0.098160000000    -0.175434   
N74      N      0.883650000000     0.631720000000     0.162370000000    -0.175514   
N75      N      0.975380000000     0.633420000000     0.504270000000    -0.175317   
N76      N      0.039770000000     0.633450000000     0.504720000000    -0.175353   
N77      N      0.381060000000     0.225440000000     0.258200000000    -0.1767     
N78      N      0.380960000000     0.289320000000     0.258380000000    -0.176763   
N79      N      0.381850000000     0.225590000000     0.005890000000    -0.17839    
N80      N      0.382000000000     0.289520000000     0.006010000000    -0.177628   
N81      N      0.381440000000     0.131810000000     0.349660000000    -0.175406   
N82      N      0.381600000000     0.132000000000     0.413860000000    -0.175445   
N83      N      0.381590000000     0.133750000000     0.099650000000    -0.175337   
N84      N      0.381680000000     0.133840000000     0.163870000000    -0.175325   
N85      N      0.382530000000     0.789290000000     0.256840000000    -0.176588   
N86      N      0.382620000000     0.725370000000     0.256900000000    -0.176434   
N87      N      0.381970000000     0.975200000000     0.255100000000    -0.175313   
N88      N      0.381820000000     0.039580000000     0.255500000000    -0.175285   
N89      N      0.382630000000     0.789380000000     0.504530000000    -0.176564   
N90      N      0.382760000000     0.725460000000     0.504610000000    -0.176471   
N91      N      0.383570000000     0.883100000000     0.412860000000    -0.175394   
N92      N      0.383600000000     0.882980000000     0.348650000000    -0.17545    
N93      N      0.380720000000     0.881140000000     0.098640000000    -0.175294   
N94      N      0.380740000000     0.881160000000     0.162880000000    -0.175431   
N95      N      0.381730000000     0.975280000000     0.006920000000    -0.175381   
N96      N      0.381600000000     0.039670000000     0.007320000000    -0.175418   
N97      N      0.880800000000     0.380830000000     0.913550000000    -0.174954   
N98      N      0.880190000000     0.380920000000     0.849310000000    -0.175153   
N99      N      0.882780000000     0.383630000000     0.599340000000    -0.175422   
N100     N      0.883270000000     0.383720000000     0.663540000000    -0.175416   
N101     N      0.039210000000     0.382190000000     0.760580000000    -0.175227   
N102     N      0.974830000000     0.382230000000     0.758950000000    -0.175255   
N103     N      0.133070000000     0.380720000000     0.918280000000    -0.17512    
N104     N      0.132680000000     0.380660000000     0.854060000000    -0.175343   
N105     N      0.132110000000     0.383520000000     0.668280000000    -0.17528    
N106     N      0.131820000000     0.383570000000     0.604060000000    -0.175343   
N107     N      0.039330000000     0.381970000000     0.509210000000    -0.175256   
N108     N      0.974970000000     0.382000000000     0.506990000000    -0.17532    
N109     N      0.788960000000     0.382790000000     0.753360000000    -0.176467   
N110     N      0.725050000000     0.383140000000     0.751520000000    -0.176415   
N111     N      0.631970000000     0.475270000000     0.750810000000    -0.175311   
N112     N      0.632340000000     0.539660000000     0.751440000000    -0.175265   
N113     N      0.725120000000     0.382490000000     0.507230000000    -0.176455   
N114     N      0.789050000000     0.382430000000     0.507250000000    -0.176571   
N115     N      0.632460000000     0.475250000000     0.507570000000    -0.175221   
N116     N      0.632650000000     0.539640000000     0.007690000000    -0.176423   
N117     N      0.475320000000     0.632680000000     0.756260000000    -0.175374   
N118     N      0.539710000000     0.632800000000     0.755860000000    -0.175226   
N119     N      0.475370000000     0.632720000000     0.005190000000    -0.176533   
N120     N      0.539770000000     0.632760000000     0.005050000000    -0.176598   
N121     N      0.288980000000     0.381870000000     0.759480000000    -0.176583   
N122     N      0.225110000000     0.381800000000     0.760780000000    -0.176502   
N123     N      0.474830000000     0.381600000000     0.753910000000    -0.175349   
N124     N      0.539220000000     0.381590000000     0.752910000000    -0.175237   
N125     N      0.381980000000     0.475180000000     0.754500000000    -0.175364   
N126     N      0.382140000000     0.539570000000     0.754190000000    -0.175255   
N127     N      0.225240000000     0.382590000000     0.511700000000    -0.176488   
N128     N      0.289160000000     0.382630000000     0.510740000000    -0.176427   
N129     N      0.474910000000     0.382170000000     0.505130000000    -0.175206   
N130     N      0.539310000000     0.382190000000     0.504620000000    -0.175293   
N131     N      0.382040000000     0.475300000000     0.509040000000    -0.17523    
N132     N      0.382200000000     0.539700000000     0.008780000000    -0.176547   
N133     N      0.632740000000     0.789330000000     0.756840000000    -0.176551   
N134     N      0.632540000000     0.725400000000     0.756620000000    -0.176447   
N135     N      0.632850000000     0.789350000000     0.004710000000    -0.178348   
N136     N      0.632630000000     0.725420000000     0.004600000000    -0.177683   
N137     N      0.631810000000     0.882910000000     0.912810000000    -0.175142   
N138     N      0.631800000000     0.883000000000     0.848610000000    -0.175336   
N139     N      0.634610000000     0.881300000000     0.598590000000    -0.175303   
N140     N      0.634590000000     0.881200000000     0.662830000000    -0.175271   
N141     N      0.632730000000     0.225550000000     0.754500000000    -0.176569   
N142     N      0.632590000000     0.289470000000     0.753840000000    -0.176401   
N143     N      0.633360000000     0.039640000000     0.754160000000    -0.17523    
N144     N      0.633390000000     0.975240000000     0.754620000000    -0.17535    
N145     N      0.632470000000     0.225560000000     0.503430000000    -0.176548   
N146     N      0.632170000000     0.289480000000     0.503630000000    -0.176435   
N147     N      0.631640000000     0.132120000000     0.911420000000    -0.175134   
N148     N      0.631670000000     0.132300000000     0.847210000000    -0.175391   
N149     N      0.634450000000     0.133470000000     0.597200000000    -0.175299   
N150     N      0.634480000000     0.133290000000     0.661430000000    -0.175344   
N151     N      0.633360000000     0.039650000000     0.005420000000    -0.175335   
N152     N      0.633390000000     0.975260000000     0.006080000000    -0.175335   
N153     N      0.225600000000     0.632780000000     0.754730000000    -0.176576   
N154     N      0.289530000000     0.632460000000     0.754250000000    -0.176452   
N155     N      0.225660000000     0.632750000000     0.007980000000    -0.178346   
N156     N      0.289590000000     0.632470000000     0.008400000000    -0.177596   
N157     N      0.134080000000     0.634620000000     0.849130000000    -0.175242   
N158     N      0.134190000000     0.634620000000     0.913370000000    -0.175048   
N159     N      0.131590000000     0.631820000000     0.599140000000    -0.175446   
N160     N      0.131650000000     0.631820000000     0.663350000000    -0.175316   
N161     N      0.789420000000     0.632530000000     0.753140000000    -0.176558   
N162     N      0.725490000000     0.632170000000     0.752390000000    -0.176418   
N163     N      0.975310000000     0.633430000000     0.756880000000    -0.175265   
N164     N      0.039700000000     0.633450000000     0.757220000000    -0.175298   
N165     N      0.789480000000     0.632640000000     0.006980000000    -0.178335   
N166     N      0.725560000000     0.632340000000     0.007550000000    -0.177585   
N167     N      0.880730000000     0.634510000000     0.848140000000    -0.175245   
N168     N      0.880870000000     0.634520000000     0.912380000000    -0.174964   
N169     N      0.883570000000     0.631740000000     0.598160000000    -0.175457   
N170     N      0.883650000000     0.631720000000     0.662370000000    -0.175501   
N171     N      0.975380000000     0.633420000000     0.004270000000    -0.175386   
N172     N      0.039770000000     0.633450000000     0.004720000000    -0.175434   
N173     N      0.381060000000     0.225440000000     0.758200000000    -0.176691   
N174     N      0.380960000000     0.289320000000     0.758380000000    -0.176758   
N175     N      0.381850000000     0.225590000000     0.505890000000    -0.176625   
N176     N      0.382000000000     0.289520000000     0.506010000000    -0.176439   
N177     N      0.381440000000     0.131810000000     0.849660000000    -0.175452   
N178     N      0.381600000000     0.132000000000     0.913860000000    -0.175185   
N179     N      0.381590000000     0.133750000000     0.599650000000    -0.175363   
N180     N      0.381680000000     0.133840000000     0.663870000000    -0.175316   
N181     N      0.382530000000     0.789290000000     0.756840000000    -0.176578   
N182     N      0.382620000000     0.725370000000     0.756910000000    -0.176427   
N183     N      0.381970000000     0.975200000000     0.755100000000    -0.175296   
N184     N      0.381820000000     0.039580000000     0.755500000000    -0.175268   
N185     N      0.382630000000     0.789380000000     0.004530000000    -0.178335   
N186     N      0.382760000000     0.725460000000     0.004610000000    -0.177637   
N187     N      0.383570000000     0.883100000000     0.912860000000    -0.175127   
N188     N      0.383600000000     0.882980000000     0.848650000000    -0.17542    
N189     N      0.380720000000     0.881140000000     0.598640000000    -0.175317   
N190     N      0.380740000000     0.881160000000     0.662870000000    -0.175358   
N191     N      0.381730000000     0.975280000000     0.506920000000    -0.175305   
N192     N      0.381600000000     0.039670000000     0.507320000000    -0.175335   
O1       O      0.356730000000     0.835310000000     0.502370000000    -0.394297   
O2       O      0.356210000000     0.928760000000     0.507050000000    -0.394674   
O3       O      0.357360000000     0.883950000000     0.458730000000    -0.396602   
O4       O      0.355580000000     0.880110000000     0.051910000000    -0.393122   
O5       O      0.406870000000     0.882940000000     0.052770000000    -0.396627   
O6       O      0.408680000000     0.881570000000     0.459560000000    -0.394038   
O7       O      0.407580000000     0.928980000000     0.005670000000    -0.395758   
O8       O      0.407930000000     0.835540000000     0.007740000000    -0.395569   
O9       O      0.356710000000     0.835260000000     0.259000000000    -0.394503   
O10      O      0.356400000000     0.928710000000     0.254700000000    -0.395048   
O11      O      0.355630000000     0.880200000000     0.209620000000    -0.393582   
O12      O      0.357420000000     0.883760000000     0.302790000000    -0.396929   
O13      O      0.408740000000     0.881390000000     0.301960000000    -0.393812   
O14      O      0.406930000000     0.882860000000     0.208730000000    -0.396986   
O15      O      0.407760000000     0.928850000000     0.255880000000    -0.395603   
O16      O      0.407920000000     0.835400000000     0.253690000000    -0.395086   
O17      O      0.355900000000     0.086100000000     0.008010000000    -0.395013   
O18      O      0.356040000000     0.179600000000     0.004050000000    -0.395198   
O19      O      0.355910000000     0.131310000000     0.460030000000    -0.396266   
O20      O      0.355970000000     0.134410000000     0.053220000000    -0.394032   
O21      O      0.407300000000     0.132210000000     0.053490000000    -0.396028   
O22      O      0.407260000000     0.133390000000     0.460240000000    -0.394414   
O23      O      0.407340000000     0.179500000000     0.008410000000    -0.395599   
O24      O      0.407250000000     0.086080000000     0.006350000000    -0.396073   
O25      O      0.356010000000     0.085900000000     0.256860000000    -0.395456   
O26      O      0.355700000000     0.179350000000     0.255250000000    -0.395297   
O27      O      0.355920000000     0.132220000000     0.209990000000    -0.396343   
O28      O      0.355820000000     0.133050000000     0.303240000000    -0.394455   
O29      O      0.407170000000     0.131090000000     0.303520000000    -0.396391   
O30      O      0.407250000000     0.134570000000     0.210340000000    -0.394304   
O31      O      0.406990000000     0.179550000000     0.259800000000    -0.39433    
O32      O      0.407370000000     0.086090000000     0.255340000000    -0.395036   
O33      O      0.928880000000     0.659000000000     0.503880000000    -0.394716   
O34      O      0.835430000000     0.658550000000     0.508810000000    -0.394345   
O35      O      0.884210000000     0.657920000000     0.052290000000    -0.396336   
O36      O      0.880080000000     0.659670000000     0.459120000000    -0.393278   
O37      O      0.882850000000     0.608370000000     0.458260000000    -0.396803   
O38      O      0.881800000000     0.606610000000     0.051480000000    -0.393657   
O39      O      0.835610000000     0.607350000000     0.503460000000    -0.395391   
O40      O      0.929040000000     0.607640000000     0.505250000000    -0.395703   
O41      O      0.928800000000     0.659000000000     0.256840000000    -0.394523   
O42      O      0.835350000000     0.658500000000     0.251540000000    -0.394252   
O43      O      0.879870000000     0.659650000000     0.301400000000    -0.39324    
O44      O      0.884290000000     0.657900000000     0.208250000000    -0.396828   
O45      O      0.881910000000     0.606590000000     0.209040000000    -0.394102   
O46      O      0.882640000000     0.608350000000     0.302270000000    -0.396841   
O47      O      0.835560000000     0.607300000000     0.256860000000    -0.395503   
O48      O      0.928990000000     0.607640000000     0.255470000000    -0.395786   
O49      O      0.086250000000     0.659060000000     0.504760000000    -0.394646   
O50      O      0.179710000000     0.658650000000     0.509830000000    -0.394278   
O51      O      0.135090000000     0.659750000000     0.460100000000    -0.393403   
O52      O      0.130880000000     0.658000000000     0.053260000000    -0.396288   
O53      O      0.133300000000     0.606680000000     0.052460000000    -0.393524   
O54      O      0.132350000000     0.608460000000     0.459240000000    -0.397109   
O55      O      0.179540000000     0.607450000000     0.504500000000    -0.395523   
O56      O      0.086110000000     0.607700000000     0.506130000000    -0.395748   
O57      O      0.086190000000     0.659070000000     0.257580000000    -0.394621   
O58      O      0.179650000000     0.658660000000     0.252780000000    -0.394396   
O59      O      0.130920000000     0.658010000000     0.209230000000    -0.396579   
O60      O      0.134930000000     0.659760000000     0.302390000000    -0.393532   
O61      O      0.132170000000     0.608460000000     0.303260000000    -0.396804   
O62      O      0.133370000000     0.606690000000     0.210040000000    -0.393898   
O63      O      0.179480000000     0.607460000000     0.258140000000    -0.395342   
O64      O      0.086050000000     0.607710000000     0.256210000000    -0.395819   
O65      O      0.607550000000     0.085960000000     0.004110000000    -0.395886   
O66      O      0.607190000000     0.179380000000     0.506460000000    -0.395278   
O67      O      0.606490000000     0.133510000000     0.458110000000    -0.393893   
O68      O      0.608270000000     0.131850000000     0.051330000000    -0.396555   
O69      O      0.659570000000     0.134680000000     0.050470000000    -0.393074   
O70      O      0.657810000000     0.131140000000     0.457300000000    -0.396723   
O71      O      0.658390000000     0.179650000000     0.001100000000    -0.395082   
O72      O      0.658920000000     0.086160000000     0.005500000000    -0.394804   
O73      O      0.607580000000     0.085980000000     0.254830000000    -0.395526   
O74      O      0.607340000000     0.179410000000     0.251860000000    -0.39502    
O75      O      0.608340000000     0.131630000000     0.207310000000    -0.397055   
O76      O      0.606560000000     0.133770000000     0.300510000000    -0.394132   
O77      O      0.657870000000     0.131340000000     0.301340000000    -0.396818   
O78      O      0.659630000000     0.134420000000     0.208150000000    -0.393601   
O79      O      0.658540000000     0.179620000000     0.257250000000    -0.394539   
O80      O      0.658950000000     0.086130000000     0.253440000000    -0.394758   
O81      O      0.607660000000     0.928890000000     0.505400000000    -0.395541   
O82      O      0.607490000000     0.835470000000     0.507860000000    -0.395307   
O83      O      0.608450000000     0.883030000000     0.052720000000    -0.396552   
O84      O      0.606680000000     0.881330000000     0.459500000000    -0.393957   
O85      O      0.658000000000     0.883800000000     0.458680000000    -0.396651   
O86      O      0.659750000000     0.880300000000     0.051870000000    -0.393151   
O87      O      0.658690000000     0.835310000000     0.502500000000    -0.394303   
O88      O      0.659030000000     0.928790000000     0.506780000000    -0.394697   
O89      O      0.607650000000     0.928900000000     0.255840000000    -0.395695   
O90      O      0.607430000000     0.835480000000     0.253710000000    -0.395369   
O91      O      0.606650000000     0.881460000000     0.301920000000    -0.394013   
O92      O      0.608420000000     0.882900000000     0.208700000000    -0.396775   
O93      O      0.659720000000     0.880140000000     0.209560000000    -0.393461   
O94      O      0.657970000000     0.883890000000     0.302740000000    -0.396797   
O95      O      0.658630000000     0.835280000000     0.259060000000    -0.394116   
O96      O      0.659010000000     0.928760000000     0.254470000000    -0.394669   
O97      O      0.334330000000     0.386280000000     0.483940000000    -0.394911   
O98      O      0.427730000000     0.380260000000     0.480640000000    -0.392558   
O99      O      0.377430000000     0.336080000000     0.481530000000    -0.393264   
O100     O      0.383500000000     0.429290000000     0.483030000000    -0.396825   
O101     O      0.380340000000     0.428460000000     0.034170000000    -0.39176    
O102     O      0.386130000000     0.335040000000     0.032120000000    -0.394081   
O103     O      0.429240000000     0.384090000000     0.031710000000    -0.39593    
O104     O      0.336060000000     0.378270000000     0.034620000000    -0.392704   
O105     O      0.334030000000     0.380470000000     0.232330000000    -0.395022   
O106     O      0.427620000000     0.381250000000     0.229430000000    -0.393146   
O107     O      0.379750000000     0.334690000000     0.231870000000    -0.395874   
O108     O      0.380650000000     0.428200000000     0.229680000000    -0.39334    
O109     O      0.383020000000     0.429330000000     0.280860000000    -0.397265   
O110     O      0.383250000000     0.335890000000     0.283110000000    -0.393972   
O111     O      0.429230000000     0.382400000000     0.280640000000    -0.397436   
O112     O      0.335880000000     0.383870000000     0.283560000000    -0.394506   
O113     O      0.336150000000     0.636930000000     0.033000000000    -0.39202    
O114     O      0.429440000000     0.630960000000     0.031370000000    -0.395493   
O115     O      0.386370000000     0.680060000000     0.030970000000    -0.394363   
O116     O      0.380390000000     0.586710000000     0.033530000000    -0.391997   
O117     O      0.384140000000     0.585520000000     0.482440000000    -0.396646   
O118     O      0.378340000000     0.678780000000     0.480280000000    -0.393144   
O119     O      0.428470000000     0.634480000000     0.480260000000    -0.393175   
O120     O      0.335130000000     0.628660000000     0.482340000000    -0.395609   
O121     O      0.335200000000     0.628770000000     0.280130000000    -0.395403   
O122     O      0.428600000000     0.634550000000     0.281540000000    -0.393047   
O123     O      0.378450000000     0.678850000000     0.281560000000    -0.393458   
O124     O      0.384200000000     0.585620000000     0.280120000000    -0.396808   
O125     O      0.380220000000     0.586380000000     0.229040000000    -0.392676   
O126     O      0.386120000000     0.679800000000     0.230810000000    -0.395121   
O127     O      0.429200000000     0.630720000000     0.230450000000    -0.396691   
O128     O      0.335950000000     0.636610000000     0.229400000000    -0.39335    
O129     O      0.678610000000     0.378070000000     0.031850000000    -0.39262    
O130     O      0.585390000000     0.383980000000     0.030490000000    -0.395888   
O131     O      0.628470000000     0.334890000000     0.029970000000    -0.394303   
O132     O      0.634380000000     0.428280000000     0.032400000000    -0.391974   
O133     O      0.630420000000     0.429380000000     0.481320000000    -0.396549   
O134     O      0.636340000000     0.336160000000     0.479260000000    -0.393407   
O135     O      0.586080000000     0.380390000000     0.479380000000    -0.392586   
O136     O      0.679520000000     0.386310000000     0.481190000000    -0.395038   
O137     O      0.628910000000     0.334930000000     0.227500000000    -0.394258   
O138     O      0.634030000000     0.428470000000     0.225570000000    -0.39173    
O139     O      0.678800000000     0.378590000000     0.226280000000    -0.391836   
O140     O      0.585250000000     0.383600000000     0.226740000000    -0.39433    
O141     O      0.586040000000     0.380090000000     0.277860000000    -0.395009   
O142     O      0.679200000000     0.386470000000     0.277010000000    -0.39655    
O143     O      0.629990000000     0.429210000000     0.276640000000    -0.397959   
O144     O      0.636370000000     0.336100000000     0.278280000000    -0.394183   
O145     O      0.679920000000     0.628660000000     0.481620000000    -0.395451   
O146     O      0.586570000000     0.634660000000     0.479940000000    -0.393242   
O147     O      0.636810000000     0.678870000000     0.480010000000    -0.393328   
O148     O      0.630800000000     0.585630000000     0.481630000000    -0.396617   
O149     O      0.634760000000     0.586500000000     0.032720000000    -0.391886   
O150     O      0.628970000000     0.679890000000     0.030730000000    -0.394385   
O151     O      0.585810000000     0.630870000000     0.031030000000    -0.395598   
O152     O      0.679090000000     0.636660000000     0.032330000000    -0.392106   
O153     O      0.678940000000     0.636870000000     0.227790000000    -0.392586   
O154     O      0.585590000000     0.631170000000     0.229520000000    -0.396121   
O155     O      0.628830000000     0.680130000000     0.230090000000    -0.39555    
O156     O      0.634500000000     0.586800000000     0.226990000000    -0.392941   
O157     O      0.630760000000     0.585350000000     0.278070000000    -0.396439   
O158     O      0.636940000000     0.678600000000     0.280760000000    -0.392983   
O159     O      0.586670000000     0.634460000000     0.280640000000    -0.393605   
O160     O      0.679940000000     0.628310000000     0.278400000000    -0.395946   
O161     O      0.085810000000     0.356350000000     0.009850000000    -0.394926   
O162     O      0.179300000000     0.356750000000     0.014380000000    -0.394569   
O163     O      0.130740000000     0.357410000000     0.058170000000    -0.396337   
O164     O      0.134350000000     0.355620000000     0.465010000000    -0.393604   
O165     O      0.131580000000     0.406920000000     0.464130000000    -0.397001   
O166     O      0.133180000000     0.408720000000     0.057360000000    -0.393449   
O167     O      0.179080000000     0.407950000000     0.009010000000    -0.396186   
O168     O      0.085660000000     0.407710000000     0.011230000000    -0.395818   
O169     O      0.179180000000     0.407550000000     0.263940000000    -0.394216   
O170     O      0.085680000000     0.407810000000     0.260420000000    -0.394905   
O171     O      0.131120000000     0.406820000000     0.308200000000    -0.396961   
O172     O      0.133730000000     0.408610000000     0.215010000000    -0.393655   
O173     O      0.130910000000     0.357320000000     0.214140000000    -0.396821   
O174     O      0.133700000000     0.355510000000     0.307350000000    -0.393739   
O175     O      0.085580000000     0.356450000000     0.261870000000    -0.395277   
O176     O      0.179000000000     0.356360000000     0.258380000000    -0.395079   
O177     O      0.835040000000     0.356670000000     0.009550000000    -0.394828   
O178     O      0.928520000000     0.356390000000     0.005550000000    -0.395098   
O179     O      0.883460000000     0.357410000000     0.053490000000    -0.396286   
O180     O      0.880080000000     0.355650000000     0.460280000000    -0.393328   
O181     O      0.882770000000     0.406950000000     0.459440000000    -0.396899   
O182     O      0.880970000000     0.408720000000     0.052650000000    -0.393658   
O183     O      0.928600000000     0.407750000000     0.006920000000    -0.395564   
O184     O      0.835150000000     0.407870000000     0.004200000000    -0.395922   
O185     O      0.834960000000     0.356890000000     0.252390000000    -0.39416    
O186     O      0.928360000000     0.356600000000     0.258300000000    -0.394737   
O187     O      0.879220000000     0.355830000000     0.302550000000    -0.393415   
O188     O      0.884090000000     0.357580000000     0.209430000000    -0.39687    
O189     O      0.881590000000     0.408890000000     0.210210000000    -0.393976   
O190     O      0.881920000000     0.407130000000     0.303450000000    -0.396737   
O191     O      0.928490000000     0.407960000000     0.256920000000    -0.39549    
O192     O      0.835020000000     0.408090000000     0.257750000000    -0.395096   
O193     O      0.356730000000     0.835310000000     0.002370000000    -0.395107   
O194     O      0.356210000000     0.928760000000     0.007050000000    -0.394888   
O195     O      0.357360000000     0.883950000000     0.958730000000    -0.39399    
O196     O      0.355580000000     0.880110000000     0.551910000000    -0.393482   
O197     O      0.406870000000     0.882940000000     0.552770000000    -0.397056   
O198     O      0.408680000000     0.881570000000     0.959560000000    -0.391415   
O199     O      0.407580000000     0.928980000000     0.505670000000    -0.395524   
O200     O      0.407930000000     0.835540000000     0.507740000000    -0.395245   
O201     O      0.356710000000     0.835260000000     0.759000000000    -0.394458   
O202     O      0.356400000000     0.928710000000     0.754700000000    -0.394992   
O203     O      0.355630000000     0.880200000000     0.709620000000    -0.393534   
O204     O      0.357420000000     0.883760000000     0.802790000000    -0.396844   
O205     O      0.408740000000     0.881390000000     0.801960000000    -0.393747   
O206     O      0.406930000000     0.882860000000     0.708730000000    -0.396968   
O207     O      0.407760000000     0.928850000000     0.755880000000    -0.395573   
O208     O      0.407920000000     0.835400000000     0.753690000000    -0.395082   
O209     O      0.355900000000     0.086100000000     0.508010000000    -0.394796   
O210     O      0.356040000000     0.179600000000     0.504050000000    -0.394391   
O211     O      0.355910000000     0.131310000000     0.960030000000    -0.393658   
O212     O      0.355970000000     0.134410000000     0.553220000000    -0.394302   
O213     O      0.407300000000     0.132210000000     0.553490000000    -0.396553   
O214     O      0.407260000000     0.133390000000     0.960240000000    -0.391787   
O215     O      0.407340000000     0.179500000000     0.508410000000    -0.395274   
O216     O      0.407250000000     0.086080000000     0.506350000000    -0.395845   
O217     O      0.356010000000     0.085900000000     0.756860000000    -0.395398   
O218     O      0.355700000000     0.179350000000     0.755250000000    -0.395258   
O219     O      0.355920000000     0.132220000000     0.709990000000    -0.396308   
O220     O      0.355820000000     0.133050000000     0.803240000000    -0.394304   
O221     O      0.407170000000     0.131090000000     0.803520000000    -0.396341   
O222     O      0.407250000000     0.134570000000     0.710340000000    -0.394219   
O223     O      0.406990000000     0.179550000000     0.759800000000    -0.394323   
O224     O      0.407370000000     0.086090000000     0.755340000000    -0.395006   
O225     O      0.928880000000     0.659000000000     0.003880000000    -0.394983   
O226     O      0.835430000000     0.658550000000     0.008810000000    -0.394695   
O227     O      0.884210000000     0.657920000000     0.552290000000    -0.396728   
O228     O      0.880080000000     0.659670000000     0.959120000000    -0.390662   
O229     O      0.882850000000     0.608370000000     0.958260000000    -0.39421    
O230     O      0.881800000000     0.606610000000     0.551480000000    -0.394044   
O231     O      0.835610000000     0.607350000000     0.003460000000    -0.396215   
O232     O      0.929040000000     0.607640000000     0.005250000000    -0.395896   
O233     O      0.928800000000     0.659000000000     0.756840000000    -0.394554   
O234     O      0.835350000000     0.658500000000     0.751540000000    -0.394211   
O235     O      0.879870000000     0.659650000000     0.801400000000    -0.393155   
O236     O      0.884280000000     0.657900000000     0.708250000000    -0.396816   
O237     O      0.881910000000     0.606590000000     0.709040000000    -0.394114   
O238     O      0.882640000000     0.608350000000     0.802270000000    -0.396787   
O239     O      0.835560000000     0.607300000000     0.756860000000    -0.395494   
O240     O      0.928990000000     0.607640000000     0.755470000000    -0.39584    
O241     O      0.086250000000     0.659060000000     0.004760000000    -0.394912   
O242     O      0.179710000000     0.658650000000     0.009830000000    -0.394627   
O243     O      0.135090000000     0.659750000000     0.960100000000    -0.390785   
O244     O      0.130880000000     0.658000000000     0.553260000000    -0.396681   
O245     O      0.133300000000     0.606680000000     0.552460000000    -0.39391    
O246     O      0.132350000000     0.608460000000     0.959240000000    -0.394516   
O247     O      0.179540000000     0.607450000000     0.004500000000    -0.39635    
O248     O      0.086110000000     0.607700000000     0.006130000000    -0.395941   
O249     O      0.086190000000     0.659070000000     0.757580000000    -0.394552   
O250     O      0.179650000000     0.658660000000     0.752780000000    -0.394369   
O251     O      0.130920000000     0.658010000000     0.709230000000    -0.396561   
O252     O      0.134920000000     0.659760000000     0.802390000000    -0.39346    
O253     O      0.132170000000     0.608460000000     0.803260000000    -0.396752   
O254     O      0.133370000000     0.606690000000     0.710040000000    -0.393901   
O255     O      0.179480000000     0.607460000000     0.758140000000    -0.395335   
O256     O      0.086050000000     0.607710000000     0.756210000000    -0.395789   
O257     O      0.607550000000     0.085960000000     0.504110000000    -0.395645   
O258     O      0.607190000000     0.179380000000     0.006460000000    -0.395669   
O259     O      0.606490000000     0.133510000000     0.958110000000    -0.391295   
O260     O      0.608270000000     0.131850000000     0.551330000000    -0.397005   
O261     O      0.659570000000     0.134680000000     0.550470000000    -0.39354    
O262     O      0.657810000000     0.131140000000     0.957300000000    -0.39423    
O263     O      0.658400000000     0.179650000000     0.501090000000    -0.394087   
O264     O      0.658920000000     0.086160000000     0.505490000000    -0.39459    
O265     O      0.607580000000     0.085980000000     0.754830000000    -0.395497   
O266     O      0.607340000000     0.179410000000     0.751860000000    -0.395005   
O267     O      0.608340000000     0.131630000000     0.707310000000    -0.397063   
O268     O      0.606560000000     0.133770000000     0.800510000000    -0.394073   
O269     O      0.657870000000     0.131340000000     0.801340000000    -0.396738   
O270     O      0.659630000000     0.134420000000     0.708150000000    -0.393578   
O271     O      0.658540000000     0.179620000000     0.757250000000    -0.394503   
O272     O      0.658950000000     0.086130000000     0.753440000000    -0.394703   
O273     O      0.607660000000     0.928890000000     0.005400000000    -0.395774   
O274     O      0.607490000000     0.835470000000     0.007860000000    -0.39563    
O275     O      0.608450000000     0.883030000000     0.552720000000    -0.396982   
O276     O      0.606680000000     0.881330000000     0.959500000000    -0.391333   
O277     O      0.658000000000     0.883800000000     0.958680000000    -0.394038   
O278     O      0.659750000000     0.880300000000     0.551870000000    -0.393512   
O279     O      0.658690000000     0.835310000000     0.002500000000    -0.395112   
O280     O      0.659030000000     0.928790000000     0.006780000000    -0.394909   
O281     O      0.607650000000     0.928900000000     0.755840000000    -0.395676   
O282     O      0.607430000000     0.835480000000     0.753710000000    -0.39536    
O283     O      0.606650000000     0.881460000000     0.801920000000    -0.393973   
O284     O      0.608420000000     0.882900000000     0.708710000000    -0.396779   
O285     O      0.659720000000     0.880140000000     0.709570000000    -0.393429   
O286     O      0.657970000000     0.883890000000     0.802740000000    -0.396736   
O287     O      0.658630000000     0.835280000000     0.759060000000    -0.394089   
O288     O      0.659010000000     0.928760000000     0.754470000000    -0.394624   
O289     O      0.334330000000     0.386280000000     0.983940000000    -0.3917     
O290     O      0.427730000000     0.380260000000     0.980640000000    -0.389427   
O291     O      0.377430000000     0.336080000000     0.981530000000    -0.390092   
O292     O      0.383500000000     0.429290000000     0.983030000000    -0.393729   
O293     O      0.380340000000     0.428470000000     0.534170000000    -0.392604   
O294     O      0.386130000000     0.335040000000     0.532120000000    -0.39501    
O295     O      0.429240000000     0.384100000000     0.531710000000    -0.396834   
O296     O      0.336060000000     0.378270000000     0.534620000000    -0.39349    
O297     O      0.334030000000     0.380470000000     0.732330000000    -0.395022   
O298     O      0.427620000000     0.381250000000     0.729440000000    -0.393252   
O299     O      0.379750000000     0.334690000000     0.731870000000    -0.395881   
O300     O      0.380650000000     0.428200000000     0.729690000000    -0.393503   
O301     O      0.383020000000     0.429330000000     0.780860000000    -0.397306   
O302     O      0.383250000000     0.335890000000     0.783110000000    -0.393933   
O303     O      0.429230000000     0.382400000000     0.780650000000    -0.397321   
O304     O      0.335880000000     0.383870000000     0.783560000000    -0.394473   
O305     O      0.336150000000     0.636930000000     0.533000000000    -0.392912   
O306     O      0.429440000000     0.630960000000     0.531380000000    -0.39626    
O307     O      0.386370000000     0.680060000000     0.530970000000    -0.395301   
O308     O      0.380390000000     0.586710000000     0.533530000000    -0.392868   
O309     O      0.384140000000     0.585520000000     0.982440000000    -0.393586   
O310     O      0.378340000000     0.678780000000     0.980280000000    -0.389968   
O311     O      0.428470000000     0.634480000000     0.980260000000    -0.390191   
O312     O      0.335130000000     0.628660000000     0.982340000000    -0.392418   
O313     O      0.335200000000     0.628770000000     0.780130000000    -0.395375   
O314     O      0.428600000000     0.634550000000     0.781540000000    -0.393025   
O315     O      0.378450000000     0.678850000000     0.781560000000    -0.393413   
O316     O      0.384200000000     0.585620000000     0.780120000000    -0.396797   
O317     O      0.380220000000     0.586380000000     0.729040000000    -0.392675   
O318     O      0.386120000000     0.679800000000     0.730810000000    -0.395123   
O319     O      0.429200000000     0.630720000000     0.730450000000    -0.396694   
O320     O      0.335950000000     0.636610000000     0.729400000000    -0.393344   
O321     O      0.678610000000     0.378070000000     0.531850000000    -0.393508   
O322     O      0.585390000000     0.383980000000     0.530490000000    -0.396824   
O323     O      0.628470000000     0.334890000000     0.529970000000    -0.395321   
O324     O      0.634380000000     0.428280000000     0.532400000000    -0.392852   
O325     O      0.630420000000     0.429380000000     0.981320000000    -0.393485   
O326     O      0.636340000000     0.336160000000     0.979260000000    -0.390158   
O327     O      0.586080000000     0.380390000000     0.979380000000    -0.389453   
O328     O      0.679520000000     0.386310000000     0.981190000000    -0.391938   
O329     O      0.628910000000     0.334930000000     0.727500000000    -0.394259   
O330     O      0.634030000000     0.428470000000     0.725570000000    -0.391734   
O331     O      0.678800000000     0.378590000000     0.726280000000    -0.39183    
O332     O      0.585250000000     0.383600000000     0.726740000000    -0.394333   
O333     O      0.586040000000     0.380090000000     0.777860000000    -0.394989   
O334     O      0.679200000000     0.386470000000     0.777010000000    -0.396523   
O335     O      0.629990000000     0.429210000000     0.776640000000    -0.397951   
O336     O      0.636370000000     0.336100000000     0.778280000000    -0.394141   
O337     O      0.679920000000     0.628660000000     0.981620000000    -0.392348   
O338     O      0.586570000000     0.634660000000     0.979940000000    -0.39011    
O339     O      0.636810000000     0.678870000000     0.980010000000    -0.390156   
O340     O      0.630800000000     0.585630000000     0.981630000000    -0.393554   
O341     O      0.634760000000     0.586500000000     0.532720000000    -0.392763   
O342     O      0.628970000000     0.679890000000     0.530730000000    -0.395327   
O343     O      0.585810000000     0.630870000000     0.531030000000    -0.396534   
O344     O      0.679090000000     0.636660000000     0.532330000000    -0.392989   
O345     O      0.678940000000     0.636870000000     0.727790000000    -0.392576   
O346     O      0.585590000000     0.631170000000     0.729520000000    -0.396067   
O347     O      0.628830000000     0.680130000000     0.730090000000    -0.395547   
O348     O      0.634500000000     0.586800000000     0.726990000000    -0.392938   
O349     O      0.630760000000     0.585350000000     0.778070000000    -0.396424   
O350     O      0.636940000000     0.678600000000     0.780760000000    -0.392941   
O351     O      0.586670000000     0.634460000000     0.780650000000    -0.393428   
O352     O      0.679940000000     0.628310000000     0.778400000000    -0.395912   
O353     O      0.085810000000     0.356350000000     0.509850000000    -0.394668   
O354     O      0.179300000000     0.356750000000     0.514380000000    -0.394223   
O355     O      0.130740000000     0.357410000000     0.558170000000    -0.396736   
O356     O      0.134350000000     0.355620000000     0.965010000000    -0.39098    
O357     O      0.131580000000     0.406920000000     0.964130000000    -0.3944     
O358     O      0.133180000000     0.408720000000     0.557360000000    -0.393842   
O359     O      0.179080000000     0.407950000000     0.509010000000    -0.395365   
O360     O      0.085660000000     0.407710000000     0.511230000000    -0.395642   
O361     O      0.179180000000     0.407550000000     0.763940000000    -0.394205   
O362     O      0.085680000000     0.407810000000     0.760420000000    -0.394876   
O363     O      0.131120000000     0.406820000000     0.808200000000    -0.396902   
O364     O      0.133730000000     0.408610000000     0.715010000000    -0.393659   
O365     O      0.130910000000     0.357320000000     0.714140000000    -0.396803   
O366     O      0.133700000000     0.355510000000     0.807350000000    -0.393652   
O367     O      0.085580000000     0.356450000000     0.761870000000    -0.395217   
O368     O      0.179000000000     0.356360000000     0.758380000000    -0.39504    
O369     O      0.835040000000     0.356670000000     0.509560000000    -0.394459   
O370     O      0.928520000000     0.356390000000     0.505550000000    -0.394828   
O371     O      0.883460000000     0.357410000000     0.553490000000    -0.396667   
O372     O      0.880080000000     0.355650000000     0.960280000000    -0.390703   
O373     O      0.882770000000     0.406950000000     0.959440000000    -0.394302   
O374     O      0.880970000000     0.408720000000     0.552650000000    -0.394042   
O375     O      0.928600000000     0.407750000000     0.506920000000    -0.39537    
O376     O      0.835150000000     0.407870000000     0.504200000000    -0.395092   
O377     O      0.834960000000     0.356890000000     0.752390000000    -0.394122   
O378     O      0.928360000000     0.356600000000     0.758300000000    -0.394679   
O379     O      0.879220000000     0.355830000000     0.802550000000    -0.393332   
O380     O      0.884090000000     0.357580000000     0.709430000000    -0.396851   
O381     O      0.881590000000     0.408890000000     0.710210000000    -0.39398    
O382     O      0.881920000000     0.407130000000     0.803450000000    -0.396682   
O383     O      0.928490000000     0.407960000000     0.756920000000    -0.395463   
O384     O      0.835020000000     0.408090000000     0.757750000000    -0.395085   


