data_structure

_audit_creation_method RASPA-1.0
_audit_creation_date 2023-5-19
_audit_author_name 'Poobodin Mano'

_cell_length_a    43.2437
_cell_length_b    43.2542
_cell_length_c    43.2465
_cell_angle_alpha 90
_cell_angle_beta  90
_cell_angle_gamma 90
_cell_volume      80891.4

_symmetry_cell_setting          triclinic
_symmetry_space_group_name_Hall 'P 1'
_symmetry_space_group_name_H-M  'P 1'
_symmetry_Int_Tables_number     1

_symmetry_equiv_pos_as_xyz 'x,y,z'

loop_
_atom_site_label
_atom_site_type_symbol
_atom_site_fract_x
_atom_site_fract_y
_atom_site_fract_z
_atom_site_charge
C1       C      0.500150000000     0.062450000000     0.249890000000     0.405464   
C2       C      0.999880000000     0.439400000000     0.250560000000     0.408924   
C3       C      0.438480000000     0.001030000000     0.250940000000     0.404526   
C4       C      0.061540000000     0.500680000000     0.249560000000     0.406428   
C5       C      0.000280000000     0.189610000000     0.249480000000     0.435809   
C6       C      0.000160000000     0.312210000000     0.250660000000     0.435191   
C7       C      0.000950000000     0.251260000000     0.188710000000     0.407295   
C8       C      0.999540000000     0.250380000000     0.311380000000     0.414631   
C9       C      0.311290000000     0.000110000000     0.251960000000     0.434395   
C10      C      0.188720000000     0.999510000000     0.248850000000     0.442892   
C11      C      0.252110000000     0.999650000000     0.188950000000     0.407217   
C12      C      0.247930000000     0.999690000000     0.311580000000     0.422651   
C13      C      0.252770000000     0.999910000000     0.061690000000     0.443765   
C14      C      0.247450000000     0.500030000000     0.438850000000     0.440142   
C15      C      0.249930000000     0.061550000000     0.000380000000     0.41564    
C16      C      0.250310000000     0.438640000000     0.500200000000     0.405333   
C17      C      0.001970000000     0.250330000000     0.061370000000     0.433986   
C18      C      0.498750000000     0.249380000000     0.438720000000     0.443122   
C19      C      0.061500000000     0.249800000000     0.997780000000     0.450787   
C20      C      0.438860000000     0.249650000000     0.502210000000     0.403598   
C21      C      0.249890000000     0.188650000000     0.000680000000     0.440703   
C22      C      0.250500000000     0.311530000000     0.000230000000     0.446412   
C23      C      0.188770000000     0.249960000000     0.997910000000     0.409072   
C24      C      0.311610000000     0.249840000000     0.003000000000     0.445101   
C25      C      0.391150000000     0.229140000000     0.985110000000     0.0242241  
C26      C      0.391590000000     0.269400000000     0.522020000000    -0.0706486  
C27      C      0.358950000000     0.230100000000     0.984510000000     0.0560346  
C28      C      0.359250000000     0.268340000000     0.523570000000     0.383557   
C29      C      0.141180000000     0.231900000000     0.017750000000     0.0286406  
C30      C      0.141400000000     0.266620000000     0.475590000000    -0.0676598  
C31      C      0.108990000000     0.230950000000     0.016850000000     0.0639434  
C32      C      0.109050000000     0.267920000000     0.476580000000     0.387891   
C33      C      0.228300000000     0.391110000000     0.516110000000     0.0267065  
C34      C      0.272690000000     0.391300000000     0.984250000000    -0.0695242  
C35      C      0.229400000000     0.358870000000     0.517370000000     0.0564502  
C36      C      0.271900000000     0.359020000000     0.982960000000     0.384651   
C37      C      0.268800000000     0.109100000000     0.480910000000     0.0317744  
C38      C      0.230810000000     0.108870000000     0.020180000000    -0.0643095  
C39      C      0.267560000000     0.141340000000     0.479970000000     0.0562321  
C40      C      0.231870000000     0.141140000000     0.021410000000     0.381964   
C41      C      0.265510000000     0.479590000000     0.359280000000     0.0341152  
C42      C      0.227900000000     0.019190000000     0.358880000000    -0.0643689  
C43      C      0.266170000000     0.480600000000     0.391480000000     0.0560144  
C44      C      0.226460000000     0.018160000000     0.391220000000     0.37879    
C45      C      0.234830000000     0.479310000000     0.141240000000     0.0232087  
C46      C      0.272020000000     0.019290000000     0.141660000000    -0.0746972  
C47      C      0.234210000000     0.480280000000     0.109040000000     0.0528667  
C48      C      0.273530000000     0.018240000000     0.109330000000     0.37609    
C49      C      0.478630000000     0.267840000000     0.358980000000     0.0305084  
C50      C      0.019590000000     0.231730000000     0.358830000000    -0.0692843  
C51      C      0.479420000000     0.268540000000     0.391250000000     0.0572235  
C52      C      0.018520000000     0.230330000000     0.391080000000     0.382976   
C53      C      0.481170000000     0.232810000000     0.141070000000     0.0299989  
C54      C      0.521960000000     0.269110000000     0.141290000000    -0.0690359  
C55      C      0.482540000000     0.231520000000     0.108850000000     0.0543505  
C56      C      0.521450000000     0.269920000000     0.108980000000     0.379019   
C57      C      0.109070000000     0.016010000000     0.227020000000     0.0260485  
C58      C      0.108930000000     0.484120000000     0.271370000000    -0.0704524  
C59      C      0.141350000000     0.016880000000     0.227810000000     0.0499211  
C60      C      0.141170000000     0.482490000000     0.270320000000     0.380291   
C61      C      0.390880000000     0.484580000000     0.229480000000     0.0244689  
C62      C      0.391150000000     0.516860000000     0.273540000000    -0.0724512  
C63      C      0.358660000000     0.483090000000     0.230830000000     0.0521287  
C64      C      0.358840000000     0.517850000000     0.273030000000     0.377569   
C65      C      0.483800000000     0.391810000000     0.228740000000     0.0247324  
C66      C      0.016020000000     0.392050000000     0.272850000000    -0.0740722  
C67      C      0.482680000000     0.359570000000     0.229790000000     0.0524746  
C68      C      0.017360000000     0.359780000000     0.272060000000     0.379645   
C69      C      0.484150000000     0.110060000000     0.271690000000     0.0256175  
C70      C      0.016250000000     0.109750000000     0.227490000000    -0.0720486  
C71      C      0.482950000000     0.142300000000     0.270540000000     0.0535241  
C72      C      0.017560000000     0.142030000000     0.228210000000     0.377799   
C73      C      0.500150000000     0.062450000000     0.749890000000     0.405458   
C74      C      0.999880000000     0.439400000000     0.750560000000     0.408919   
C75      C      0.438480000000     0.001030000000     0.750940000000     0.404285   
C76      C      0.061540000000     0.500680000000     0.749560000000     0.40642    
C77      C      0.000280000000     0.189610000000     0.749480000000     0.435736   
C78      C      0.000160000000     0.312210000000     0.750660000000     0.43519    
C79      C      0.000950000000     0.251260000000     0.688710000000     0.407295   
C80      C      0.999540000000     0.250380000000     0.811380000000     0.414627   
C81      C      0.311290000000     0.000110000000     0.751950000000     0.434388   
C82      C      0.188720000000     0.999510000000     0.748850000000     0.442893   
C83      C      0.252110000000     0.999650000000     0.688950000000     0.407216   
C84      C      0.247930000000     0.999690000000     0.811580000000     0.422647   
C85      C      0.252770000000     0.999910000000     0.561690000000     0.443616   
C86      C      0.247450000000     0.500030000000     0.938850000000     0.440154   
C87      C      0.249930000000     0.061550000000     0.500380000000     0.416079   
C88      C      0.250310000000     0.438640000000     0.000200000000     0.40535    
C89      C      0.001970000000     0.250330000000     0.561370000000     0.433922   
C90      C      0.498750000000     0.249380000000     0.938720000000     0.443079   
C91      C      0.061500000000     0.249800000000     0.497780000000     0.450277   
C92      C      0.438860000000     0.249650000000     0.002210000000     0.403142   
C93      C      0.249890000000     0.188650000000     0.500680000000     0.441125   
C94      C      0.250500000000     0.311530000000     0.500230000000     0.446834   
C95      C      0.188770000000     0.249960000000     0.497910000000     0.408533   
C96      C      0.311610000000     0.249840000000     0.503000000000     0.445508   
C97      C      0.391150000000     0.229140000000     0.485110000000     0.0239051  
C98      C      0.391590000000     0.269400000000     0.022020000000    -0.0707382  
C99      C      0.358950000000     0.230100000000     0.484510000000     0.0557699  
C100     C      0.359250000000     0.268340000000     0.023570000000     0.383577   
C101     C      0.141180000000     0.231900000000     0.517750000000     0.0289545  
C102     C      0.141400000000     0.266620000000     0.975590000000    -0.0675228  
C103     C      0.108990000000     0.230950000000     0.516850000000     0.0641754  
C104     C      0.109050000000     0.267920000000     0.976580000000     0.387966   
C105     C      0.228300000000     0.391110000000     0.016110000000     0.0266691  
C106     C      0.272690000000     0.391300000000     0.484250000000    -0.069878   
C107     C      0.229400000000     0.358870000000     0.017370000000     0.0563843  
C108     C      0.271900000000     0.359020000000     0.482960000000     0.384381   
C109     C      0.268800000000     0.109100000000     0.980910000000     0.0320917  
C110     C      0.230810000000     0.108870000000     0.520180000000    -0.0642595  
C111     C      0.267560000000     0.141340000000     0.979960000000     0.0564671  
C112     C      0.231870000000     0.141140000000     0.521410000000     0.382017   
C113     C      0.265510000000     0.479590000000     0.859280000000     0.034122   
C114     C      0.227900000000     0.019190000000     0.858890000000    -0.0644695  
C115     C      0.266170000000     0.480600000000     0.891480000000     0.0560418  
C116     C      0.226460000000     0.018160000000     0.891220000000     0.37889    
C117     C      0.234830000000     0.479310000000     0.641240000000     0.0231997  
C118     C      0.272020000000     0.019290000000     0.641660000000    -0.0747044  
C119     C      0.234210000000     0.480280000000     0.609040000000     0.0529107  
C120     C      0.273530000000     0.018240000000     0.609330000000     0.376122   
C121     C      0.478630000000     0.267840000000     0.858980000000     0.0305111  
C122     C      0.019590000000     0.231730000000     0.858840000000    -0.0692936  
C123     C      0.479420000000     0.268540000000     0.891260000000     0.0573025  
C124     C      0.018520000000     0.230330000000     0.891090000000     0.383155   
C125     C      0.481170000000     0.232810000000     0.641070000000     0.0300055  
C126     C      0.521960000000     0.269110000000     0.641290000000    -0.0690292  
C127     C      0.482540000000     0.231520000000     0.608850000000     0.0543533  
C128     C      0.521450000000     0.269920000000     0.608980000000     0.379024   
C129     C      0.109070000000     0.016010000000     0.727020000000     0.026048   
C130     C      0.108930000000     0.484120000000     0.771370000000    -0.0705169  
C131     C      0.141350000000     0.016880000000     0.727810000000     0.049928   
C132     C      0.141170000000     0.482490000000     0.770320000000     0.380324   
C133     C      0.390880000000     0.484580000000     0.729480000000     0.0244675  
C134     C      0.391150000000     0.516860000000     0.773540000000    -0.0724638  
C135     C      0.358660000000     0.483090000000     0.730830000000     0.0521217  
C136     C      0.358840000000     0.517850000000     0.773030000000     0.377591   
C137     C      0.483800000000     0.391810000000     0.728740000000     0.0247354  
C138     C      0.016020000000     0.392050000000     0.772850000000    -0.0740681  
C139     C      0.482680000000     0.359570000000     0.729790000000     0.0524779  
C140     C      0.017360000000     0.359780000000     0.772060000000     0.37965    
C141     C      0.484150000000     0.110060000000     0.771690000000     0.0256248  
C142     C      0.016250000000     0.109750000000     0.727490000000    -0.0721043  
C143     C      0.482950000000     0.142300000000     0.770540000000     0.0535233  
C144     C      0.017560000000     0.142030000000     0.728200000000     0.377906   
C145     C      0.500150000000     0.562450000000     0.249890000000     0.405633   
C146     C      0.999880000000     0.939400000000     0.250560000000     0.408505   
C147     C      0.438480000000     0.501030000000     0.250940000000     0.404995   
C148     C      0.061540000000     0.000670000000     0.249560000000     0.406024   
C149     C      0.000280000000     0.689610000000     0.249480000000     0.435814   
C150     C      0.000160000000     0.812210000000     0.250660000000     0.435221   
C151     C      0.000950000000     0.751260000000     0.188710000000     0.407306   
C152     C      0.999540000000     0.750380000000     0.311380000000     0.414637   
C153     C      0.311290000000     0.500110000000     0.251960000000     0.43872    
C154     C      0.188720000000     0.499510000000     0.248850000000     0.438528   
C155     C      0.252110000000     0.499650000000     0.188950000000     0.40274    
C156     C      0.247930000000     0.499700000000     0.311580000000     0.417926   
C157     C      0.252770000000     0.499910000000     0.061690000000     0.439925   
C158     C      0.247450000000     0.000030000000     0.438850000000     0.432265   
C159     C      0.249930000000     0.561550000000     0.000380000000     0.416141   
C160     C      0.250310000000     0.938640000000     0.500200000000     0.404637   
C161     C      0.001970000000     0.750330000000     0.061370000000     0.434212   
C162     C      0.498750000000     0.749380000000     0.438720000000     0.44312    
C163     C      0.061500000000     0.749810000000     0.997780000000     0.450778   
C164     C      0.438860000000     0.749640000000     0.502210000000     0.403594   
C165     C      0.249890000000     0.688650000000     0.000680000000     0.440734   
C166     C      0.250500000000     0.811530000000     0.000230000000     0.446475   
C167     C      0.188770000000     0.749960000000     0.997910000000     0.409044   
C168     C      0.311610000000     0.749840000000     0.003000000000     0.445102   
C169     C      0.391150000000     0.729140000000     0.985110000000     0.0242436  
C170     C      0.391590000000     0.769400000000     0.522020000000    -0.0706014  
C171     C      0.358950000000     0.730100000000     0.984510000000     0.0560674  
C172     C      0.359250000000     0.768340000000     0.523570000000     0.383594   
C173     C      0.141180000000     0.731900000000     0.017750000000     0.0286723  
C174     C      0.141400000000     0.766620000000     0.475590000000    -0.0676266  
C175     C      0.108990000000     0.730950000000     0.016850000000     0.0639704  
C176     C      0.109050000000     0.767920000000     0.476580000000     0.387932   
C177     C      0.228300000000     0.891110000000     0.516110000000     0.0267996  
C178     C      0.272690000000     0.891300000000     0.984250000000    -0.0694215  
C179     C      0.229400000000     0.858870000000     0.517370000000     0.0565628  
C180     C      0.271900000000     0.859020000000     0.982960000000     0.384764   
C181     C      0.268800000000     0.609100000000     0.480910000000     0.031841   
C182     C      0.230810000000     0.608870000000     0.020180000000    -0.064262   
C183     C      0.267560000000     0.641340000000     0.479970000000     0.0562819  
C184     C      0.231870000000     0.641140000000     0.021410000000     0.38214    
C185     C      0.265510000000     0.979590000000     0.359280000000     0.0350919  
C186     C      0.227900000000     0.519190000000     0.358880000000    -0.0619592  
C187     C      0.266170000000     0.980600000000     0.391480000000     0.0562573  
C188     C      0.226460000000     0.518160000000     0.391220000000     0.381497   
C189     C      0.234830000000     0.979310000000     0.141240000000     0.023939   
C190     C      0.272020000000     0.519300000000     0.141660000000    -0.0721712  
C191     C      0.234210000000     0.980280000000     0.109040000000     0.0535682  
C192     C      0.273530000000     0.518240000000     0.109330000000     0.378463   
C193     C      0.478630000000     0.767840000000     0.358980000000     0.030545   
C194     C      0.019590000000     0.731730000000     0.358830000000    -0.0692578  
C195     C      0.479420000000     0.768540000000     0.391250000000     0.0572686  
C196     C      0.018520000000     0.730330000000     0.391080000000     0.383011   
C197     C      0.481170000000     0.732810000000     0.141070000000     0.0300233  
C198     C      0.521960000000     0.769110000000     0.141290000000    -0.0690076  
C199     C      0.482540000000     0.731520000000     0.108850000000     0.0543905  
C200     C      0.521450000000     0.769920000000     0.108980000000     0.379081   
C201     C      0.109070000000     0.516020000000     0.227020000000     0.0254827  
C202     C      0.108930000000     0.984120000000     0.271370000000    -0.0665224  
C203     C      0.141350000000     0.516880000000     0.227810000000     0.0535634  
C204     C      0.141170000000     0.982490000000     0.270320000000     0.380064   
C205     C      0.390880000000     0.984580000000     0.229480000000     0.0274808  
C206     C      0.391150000000     0.016860000000     0.273540000000    -0.0729477  
C207     C      0.358660000000     0.983090000000     0.230830000000     0.0546694  
C208     C      0.358840000000     0.017850000000     0.273030000000     0.376886   
C209     C      0.483800000000     0.891810000000     0.228740000000     0.0248887  
C210     C      0.016020000000     0.892060000000     0.272850000000    -0.0738076  
C211     C      0.482680000000     0.859570000000     0.229790000000     0.0525855  
C212     C      0.017360000000     0.859780000000     0.272060000000     0.37969    
C213     C      0.484150000000     0.610060000000     0.271690000000     0.0256765  
C214     C      0.016250000000     0.609750000000     0.227490000000    -0.0719901  
C215     C      0.482950000000     0.642300000000     0.270540000000     0.0535599  
C216     C      0.017560000000     0.642030000000     0.228210000000     0.377839   
C217     C      0.500150000000     0.562450000000     0.749890000000     0.405627   
C218     C      0.999880000000     0.939400000000     0.750560000000     0.4085     
C219     C      0.438480000000     0.501030000000     0.750940000000     0.404754   
C220     C      0.061540000000     0.000670000000     0.749560000000     0.406016   
C221     C      0.000280000000     0.689610000000     0.749480000000     0.435741   
C222     C      0.000160000000     0.812210000000     0.750660000000     0.435221   
C223     C      0.000950000000     0.751260000000     0.688710000000     0.407306   
C224     C      0.999540000000     0.750380000000     0.811380000000     0.414633   
C225     C      0.311290000000     0.500110000000     0.751950000000     0.438713   
C226     C      0.188720000000     0.499510000000     0.748850000000     0.43853    
C227     C      0.252110000000     0.499650000000     0.688950000000     0.402738   
C228     C      0.247930000000     0.499700000000     0.811580000000     0.417926   
C229     C      0.252770000000     0.499910000000     0.561690000000     0.439766   
C230     C      0.247450000000     0.000030000000     0.938850000000     0.432298   
C231     C      0.249930000000     0.561550000000     0.500380000000     0.416581   
C232     C      0.250310000000     0.938640000000     0.000200000000     0.404655   
C233     C      0.001970000000     0.750330000000     0.561370000000     0.434148   
C234     C      0.498750000000     0.749380000000     0.938720000000     0.443078   
C235     C      0.061500000000     0.749810000000     0.497780000000     0.450269   
C236     C      0.438860000000     0.749640000000     0.002210000000     0.403137   
C237     C      0.249890000000     0.688650000000     0.500680000000     0.441156   
C238     C      0.250500000000     0.811530000000     0.500230000000     0.446897   
C239     C      0.188770000000     0.749960000000     0.497910000000     0.408508   
C240     C      0.311610000000     0.749840000000     0.503000000000     0.445509   
C241     C      0.391150000000     0.729140000000     0.485110000000     0.0239255  
C242     C      0.391590000000     0.769400000000     0.022020000000    -0.0706913  
C243     C      0.358950000000     0.730100000000     0.484510000000     0.0558036  
C244     C      0.359250000000     0.768340000000     0.023570000000     0.383614   
C245     C      0.141180000000     0.731900000000     0.517750000000     0.0289863  
C246     C      0.141400000000     0.766620000000     0.975590000000    -0.0674901  
C247     C      0.108990000000     0.730950000000     0.516850000000     0.0642025  
C248     C      0.109050000000     0.767920000000     0.976580000000     0.388007   
C249     C      0.228300000000     0.891110000000     0.016110000000     0.0267616  
C250     C      0.272690000000     0.891300000000     0.484250000000    -0.0697736  
C251     C      0.229400000000     0.858870000000     0.017370000000     0.0564964  
C252     C      0.271900000000     0.859020000000     0.482960000000     0.384496   
C253     C      0.268800000000     0.609100000000     0.980910000000     0.0321576  
C254     C      0.230810000000     0.608870000000     0.520180000000    -0.0642114  
C255     C      0.267560000000     0.641340000000     0.979960000000     0.0565162  
C256     C      0.231870000000     0.641140000000     0.521410000000     0.382193   
C257     C      0.265510000000     0.979590000000     0.859280000000     0.035097   
C258     C      0.227900000000     0.519190000000     0.858890000000    -0.0620643  
C259     C      0.266170000000     0.980600000000     0.891480000000     0.0562844  
C260     C      0.226460000000     0.518160000000     0.891220000000     0.381591   
C261     C      0.234830000000     0.979310000000     0.641240000000     0.0239313  
C262     C      0.272020000000     0.519300000000     0.641660000000    -0.0721765  
C263     C      0.234210000000     0.980280000000     0.609040000000     0.0536122  
C264     C      0.273530000000     0.518240000000     0.609330000000     0.3785     
C265     C      0.478630000000     0.767840000000     0.858980000000     0.0305476  
C266     C      0.019590000000     0.731730000000     0.858840000000    -0.0692672  
C267     C      0.479420000000     0.768540000000     0.891260000000     0.0573475  
C268     C      0.018520000000     0.730330000000     0.891090000000     0.383191   
C269     C      0.481170000000     0.732810000000     0.641070000000     0.03003    
C270     C      0.521960000000     0.769110000000     0.641290000000    -0.0690008  
C271     C      0.482540000000     0.731520000000     0.608850000000     0.0543933  
C272     C      0.521450000000     0.769920000000     0.608980000000     0.379086   
C273     C      0.109070000000     0.516020000000     0.727020000000     0.0254824  
C274     C      0.108930000000     0.984120000000     0.771370000000    -0.066587   
C275     C      0.141350000000     0.516880000000     0.727810000000     0.05357    
C276     C      0.141170000000     0.982490000000     0.770320000000     0.380097   
C277     C      0.390880000000     0.984580000000     0.729480000000     0.027479   
C278     C      0.391150000000     0.016860000000     0.773540000000    -0.07296    
C279     C      0.358660000000     0.983090000000     0.730830000000     0.0546621  
C280     C      0.358840000000     0.017850000000     0.773030000000     0.376909   
C281     C      0.483800000000     0.891810000000     0.728740000000     0.0248917  
C282     C      0.016020000000     0.892060000000     0.772850000000    -0.0738036  
C283     C      0.482680000000     0.859570000000     0.729790000000     0.0525889  
C284     C      0.017360000000     0.859780000000     0.772060000000     0.379695   
C285     C      0.484150000000     0.610060000000     0.771690000000     0.0256836  
C286     C      0.016250000000     0.609750000000     0.727490000000    -0.0720458  
C287     C      0.482950000000     0.642300000000     0.770540000000     0.0535591  
C288     C      0.017560000000     0.642030000000     0.728200000000     0.377946   
C289     C      0.000150000000     0.062450000000     0.249890000000     0.402052   
C290     C      0.499870000000     0.439400000000     0.250560000000     0.405515   
C291     C      0.938480000000     0.001030000000     0.250940000000     0.404387   
C292     C      0.561540000000     0.500680000000     0.249560000000     0.406393   
C293     C      0.500280000000     0.189610000000     0.249480000000     0.43921    
C294     C      0.500160000000     0.312210000000     0.250660000000     0.438546   
C295     C      0.500950000000     0.251260000000     0.188710000000     0.410408   
C296     C      0.499540000000     0.250380000000     0.311380000000     0.411091   
C297     C      0.811290000000     0.000110000000     0.251960000000     0.434416   
C298     C      0.688730000000     0.999510000000     0.248850000000     0.442966   
C299     C      0.752110000000     0.999650000000     0.188950000000     0.407221   
C300     C      0.747930000000     0.999690000000     0.311580000000     0.422654   
C301     C      0.752770000000     0.999910000000     0.061690000000     0.44376    
C302     C      0.747450000000     0.500030000000     0.438850000000     0.440141   
C303     C      0.749940000000     0.061550000000     0.000380000000     0.415643   
C304     C      0.750310000000     0.438640000000     0.500200000000     0.405573   
C305     C      0.501970000000     0.250330000000     0.061370000000     0.437814   
C306     C      0.998750000000     0.249380000000     0.438720000000     0.446181   
C307     C      0.561500000000     0.249800000000     0.997780000000     0.451056   
C308     C      0.938860000000     0.249650000000     0.502210000000     0.403009   
C309     C      0.749890000000     0.188650000000     0.000680000000     0.440715   
C310     C      0.750500000000     0.311530000000     0.000230000000     0.446487   
C311     C      0.688770000000     0.249960000000     0.997910000000     0.409083   
C312     C      0.811610000000     0.249840000000     0.003000000000     0.445058   
C313     C      0.891150000000     0.229140000000     0.985110000000     0.0242676  
C314     C      0.891580000000     0.269400000000     0.522020000000    -0.0707077  
C315     C      0.858940000000     0.230100000000     0.984510000000     0.0561652  
C316     C      0.859250000000     0.268340000000     0.523570000000     0.383723   
C317     C      0.641180000000     0.231900000000     0.017750000000     0.0286749  
C318     C      0.641400000000     0.266620000000     0.475590000000    -0.0676305  
C319     C      0.608990000000     0.230950000000     0.016850000000     0.0639944  
C320     C      0.609050000000     0.267920000000     0.476580000000     0.387964   
C321     C      0.728300000000     0.391110000000     0.516110000000     0.0268394  
C322     C      0.772690000000     0.391300000000     0.984250000000    -0.0695126  
C323     C      0.729390000000     0.358870000000     0.517370000000     0.0563101  
C324     C      0.771900000000     0.359020000000     0.982960000000     0.384756   
C325     C      0.768800000000     0.109100000000     0.480910000000     0.0318511  
C326     C      0.730810000000     0.108870000000     0.020180000000    -0.0643162  
C327     C      0.767560000000     0.141340000000     0.479970000000     0.0562437  
C328     C      0.731870000000     0.141140000000     0.021410000000     0.382003   
C329     C      0.765510000000     0.479590000000     0.359280000000     0.0341416  
C330     C      0.727900000000     0.019190000000     0.358880000000    -0.0643482  
C331     C      0.766170000000     0.480600000000     0.391480000000     0.0560465  
C332     C      0.726460000000     0.018160000000     0.391220000000     0.37882    
C333     C      0.734830000000     0.479310000000     0.141240000000     0.0232341  
C334     C      0.772020000000     0.019290000000     0.141660000000    -0.0746722  
C335     C      0.734210000000     0.480280000000     0.109040000000     0.0528968  
C336     C      0.773530000000     0.018240000000     0.109330000000     0.376129   
C337     C      0.978630000000     0.267840000000     0.358980000000     0.0310998  
C338     C      0.519590000000     0.231730000000     0.358830000000    -0.0672337  
C339     C      0.979420000000     0.268540000000     0.391250000000     0.0577917  
C340     C      0.518520000000     0.230330000000     0.391080000000     0.384804   
C341     C      0.981170000000     0.232810000000     0.141070000000     0.0321009  
C342     C      0.021960000000     0.269110000000     0.141290000000    -0.0695339  
C343     C      0.982540000000     0.231520000000     0.108850000000     0.0564009  
C344     C      0.021450000000     0.269920000000     0.108980000000     0.378528   
C345     C      0.609070000000     0.016010000000     0.227020000000     0.0261273  
C346     C      0.608930000000     0.484120000000     0.271370000000    -0.0703388  
C347     C      0.641350000000     0.016880000000     0.227810000000     0.0499635  
C348     C      0.641170000000     0.482490000000     0.270320000000     0.380324   
C349     C      0.890880000000     0.484580000000     0.229480000000     0.0245776  
C350     C      0.891150000000     0.516860000000     0.273540000000    -0.072357   
C351     C      0.858660000000     0.483090000000     0.230830000000     0.0521871  
C352     C      0.858840000000     0.517850000000     0.273030000000     0.377654   
C353     C      0.983790000000     0.391810000000     0.228740000000     0.0244822  
C354     C      0.516020000000     0.392050000000     0.272850000000    -0.0712862  
C355     C      0.982680000000     0.359570000000     0.229790000000     0.0553594  
C356     C      0.517360000000     0.359780000000     0.272060000000     0.379474   
C357     C      0.984150000000     0.110060000000     0.271690000000     0.0276756  
C358     C      0.516250000000     0.109750000000     0.227490000000    -0.0715353  
C359     C      0.982950000000     0.142300000000     0.270540000000     0.0556064  
C360     C      0.517560000000     0.142030000000     0.228210000000     0.37831    
C361     C      0.000150000000     0.062450000000     0.749890000000     0.402048   
C362     C      0.499870000000     0.439400000000     0.750560000000     0.405511   
C363     C      0.938480000000     0.001030000000     0.750940000000     0.404148   
C364     C      0.561540000000     0.500680000000     0.749560000000     0.406385   
C365     C      0.500280000000     0.189610000000     0.749480000000     0.439137   
C366     C      0.500160000000     0.312210000000     0.750660000000     0.438546   
C367     C      0.500950000000     0.251260000000     0.688710000000     0.41041    
C368     C      0.499540000000     0.250380000000     0.811380000000     0.411091   
C369     C      0.811290000000     0.000110000000     0.751950000000     0.434409   
C370     C      0.688730000000     0.999510000000     0.748850000000     0.442968   
C371     C      0.752110000000     0.999650000000     0.688950000000     0.407221   
C372     C      0.747930000000     0.999690000000     0.811580000000     0.42265    
C373     C      0.752770000000     0.999910000000     0.561690000000     0.44361    
C374     C      0.747450000000     0.500030000000     0.938850000000     0.440153   
C375     C      0.749940000000     0.061550000000     0.500380000000     0.416082   
C376     C      0.750310000000     0.438640000000     0.000200000000     0.405588   
C377     C      0.501970000000     0.250330000000     0.561370000000     0.437761   
C378     C      0.998750000000     0.249380000000     0.938720000000     0.44613    
C379     C      0.561500000000     0.249800000000     0.497780000000     0.450547   
C380     C      0.938860000000     0.249650000000     0.002210000000     0.402556   
C381     C      0.749890000000     0.188650000000     0.500680000000     0.441138   
C382     C      0.750500000000     0.311530000000     0.500230000000     0.44691    
C383     C      0.688770000000     0.249960000000     0.497910000000     0.408546   
C384     C      0.811610000000     0.249840000000     0.503000000000     0.445465   
C385     C      0.891150000000     0.229140000000     0.485110000000     0.0239498  
C386     C      0.891580000000     0.269400000000     0.022020000000    -0.0707977  
C387     C      0.858940000000     0.230100000000     0.484510000000     0.0559014  
C388     C      0.859250000000     0.268340000000     0.023570000000     0.383743   
C389     C      0.641180000000     0.231900000000     0.517750000000     0.0289893  
C390     C      0.641400000000     0.266620000000     0.975590000000    -0.0674937  
C391     C      0.608990000000     0.230950000000     0.516850000000     0.064227   
C392     C      0.609050000000     0.267920000000     0.976580000000     0.388039   
C393     C      0.728300000000     0.391110000000     0.016110000000     0.0268016  
C394     C      0.772690000000     0.391300000000     0.484250000000    -0.0698657  
C395     C      0.729390000000     0.358870000000     0.017370000000     0.0562439  
C396     C      0.771900000000     0.359020000000     0.482960000000     0.384487   
C397     C      0.768800000000     0.109100000000     0.980910000000     0.0321679  
C398     C      0.730810000000     0.108870000000     0.520180000000    -0.0642659  
C399     C      0.767560000000     0.141340000000     0.979960000000     0.056478   
C400     C      0.731870000000     0.141140000000     0.521410000000     0.382056   
C401     C      0.765510000000     0.479590000000     0.859280000000     0.0341484  
C402     C      0.727900000000     0.019190000000     0.858890000000    -0.0644489  
C403     C      0.766170000000     0.480600000000     0.891480000000     0.0560739  
C404     C      0.726460000000     0.018160000000     0.891220000000     0.37892    
C405     C      0.734830000000     0.479310000000     0.641240000000     0.0232251  
C406     C      0.772020000000     0.019290000000     0.641660000000    -0.0746794  
C407     C      0.734210000000     0.480280000000     0.609040000000     0.0529409  
C408     C      0.773530000000     0.018240000000     0.609330000000     0.376161   
C409     C      0.978630000000     0.267840000000     0.858980000000     0.0311022  
C410     C      0.519590000000     0.231730000000     0.858840000000    -0.0672467  
C411     C      0.979420000000     0.268540000000     0.891260000000     0.057869   
C412     C      0.518520000000     0.230330000000     0.891090000000     0.38498    
C413     C      0.981170000000     0.232810000000     0.641070000000     0.0321096  
C414     C      0.021960000000     0.269110000000     0.641290000000    -0.0695279  
C415     C      0.982540000000     0.231520000000     0.608850000000     0.0564081  
C416     C      0.021450000000     0.269920000000     0.608980000000     0.378533   
C417     C      0.609070000000     0.016010000000     0.727020000000     0.0261268  
C418     C      0.608930000000     0.484120000000     0.771370000000    -0.0704034  
C419     C      0.641350000000     0.016880000000     0.727810000000     0.0499705  
C420     C      0.641170000000     0.482490000000     0.770320000000     0.380357   
C421     C      0.890880000000     0.484580000000     0.729480000000     0.0245763  
C422     C      0.891150000000     0.516860000000     0.773540000000    -0.0723696  
C423     C      0.858660000000     0.483090000000     0.730830000000     0.0521801  
C424     C      0.858840000000     0.517850000000     0.773030000000     0.377677   
C425     C      0.983790000000     0.391810000000     0.728740000000     0.0244853  
C426     C      0.516020000000     0.392050000000     0.772850000000    -0.0712824  
C427     C      0.982680000000     0.359570000000     0.729790000000     0.0553626  
C428     C      0.517360000000     0.359780000000     0.772060000000     0.379479   
C429     C      0.984150000000     0.110060000000     0.771690000000     0.0276825  
C430     C      0.516250000000     0.109750000000     0.727490000000    -0.071591   
C431     C      0.982950000000     0.142300000000     0.770540000000     0.0556053  
C432     C      0.517560000000     0.142030000000     0.728200000000     0.378417   
C433     C      0.000150000000     0.562450000000     0.249890000000     0.402216   
C434     C      0.499870000000     0.939400000000     0.250560000000     0.405104   
C435     C      0.938480000000     0.501030000000     0.250940000000     0.404856   
C436     C      0.561540000000     0.000670000000     0.249560000000     0.405987   
C437     C      0.500280000000     0.689610000000     0.249480000000     0.439215   
C438     C      0.500160000000     0.812210000000     0.250660000000     0.438574   
C439     C      0.500950000000     0.751260000000     0.188710000000     0.410418   
C440     C      0.499540000000     0.750380000000     0.311380000000     0.411101   
C441     C      0.811290000000     0.500110000000     0.251960000000     0.438737   
C442     C      0.688730000000     0.499510000000     0.248850000000     0.438601   
C443     C      0.752110000000     0.499650000000     0.188950000000     0.402748   
C444     C      0.747930000000     0.499700000000     0.311580000000     0.417931   
C445     C      0.752770000000     0.499910000000     0.061690000000     0.439923   
C446     C      0.747450000000     0.000030000000     0.438850000000     0.432268   
C447     C      0.749940000000     0.561550000000     0.000380000000     0.416144   
C448     C      0.750310000000     0.938640000000     0.500200000000     0.404875   
C449     C      0.501970000000     0.750330000000     0.061370000000     0.438039   
C450     C      0.998750000000     0.749380000000     0.438720000000     0.446178   
C451     C      0.561500000000     0.749810000000     0.997780000000     0.451047   
C452     C      0.938860000000     0.749640000000     0.502210000000     0.403006   
C453     C      0.749890000000     0.688650000000     0.000680000000     0.440745   
C454     C      0.750500000000     0.811530000000     0.000230000000     0.44655    
C455     C      0.688770000000     0.749960000000     0.997910000000     0.409056   
C456     C      0.811610000000     0.749840000000     0.003000000000     0.445058   
C457     C      0.891150000000     0.729140000000     0.985110000000     0.0242871  
C458     C      0.891580000000     0.769400000000     0.522020000000    -0.0706607  
C459     C      0.858940000000     0.730100000000     0.984510000000     0.0561979  
C460     C      0.859250000000     0.768340000000     0.523570000000     0.383761   
C461     C      0.641180000000     0.731900000000     0.017750000000     0.0287066  
C462     C      0.641400000000     0.766620000000     0.475590000000    -0.0675972  
C463     C      0.608990000000     0.730950000000     0.016850000000     0.0640214  
C464     C      0.609050000000     0.767920000000     0.476580000000     0.388005   
C465     C      0.728300000000     0.891110000000     0.516110000000     0.0269325  
C466     C      0.772690000000     0.891300000000     0.984250000000    -0.0694101  
C467     C      0.729390000000     0.858870000000     0.517370000000     0.0564227  
C468     C      0.771900000000     0.859020000000     0.982960000000     0.384869   
C469     C      0.768800000000     0.609100000000     0.480910000000     0.0319177  
C470     C      0.730810000000     0.608870000000     0.020180000000    -0.0642687  
C471     C      0.767560000000     0.641340000000     0.479970000000     0.0562934  
C472     C      0.731870000000     0.641140000000     0.021410000000     0.382178   
C473     C      0.765510000000     0.979590000000     0.359280000000     0.0351174  
C474     C      0.727900000000     0.519190000000     0.358880000000    -0.0619392  
C475     C      0.766170000000     0.980600000000     0.391480000000     0.0562889  
C476     C      0.726460000000     0.518160000000     0.391220000000     0.381526   
C477     C      0.734830000000     0.979310000000     0.141240000000     0.0239639  
C478     C      0.772020000000     0.519300000000     0.141660000000    -0.0721475  
C479     C      0.734210000000     0.980280000000     0.109040000000     0.0535978  
C480     C      0.773530000000     0.518240000000     0.109330000000     0.378501   
C481     C      0.978630000000     0.767840000000     0.358980000000     0.0311355  
C482     C      0.519590000000     0.731730000000     0.358830000000    -0.0672081  
C483     C      0.979420000000     0.768540000000     0.391250000000     0.057836   
C484     C      0.518520000000     0.730330000000     0.391080000000     0.384839   
C485     C      0.981170000000     0.732810000000     0.141070000000     0.0321237  
C486     C      0.021960000000     0.769110000000     0.141290000000    -0.0695056  
C487     C      0.982540000000     0.731520000000     0.108850000000     0.0564391  
C488     C      0.021450000000     0.769920000000     0.108980000000     0.37859    
C489     C      0.609070000000     0.516020000000     0.227020000000     0.0255615  
C490     C      0.608930000000     0.984120000000     0.271370000000    -0.0664043  
C491     C      0.641350000000     0.516880000000     0.227810000000     0.0536085  
C492     C      0.641170000000     0.982490000000     0.270320000000     0.380096   
C493     C      0.890880000000     0.984580000000     0.229480000000     0.0275821  
C494     C      0.891150000000     0.016860000000     0.273540000000    -0.0728522  
C495     C      0.858660000000     0.983090000000     0.230830000000     0.0547237  
C496     C      0.858840000000     0.017850000000     0.273030000000     0.376972   
C497     C      0.983790000000     0.891810000000     0.228740000000     0.0246377  
C498     C      0.516020000000     0.892060000000     0.272850000000    -0.0710261  
C499     C      0.982680000000     0.859570000000     0.229790000000     0.0554652  
C500     C      0.517360000000     0.859780000000     0.272060000000     0.379521   
C501     C      0.984150000000     0.610060000000     0.271690000000     0.0277359  
C502     C      0.516250000000     0.609750000000     0.227490000000    -0.0714761  
C503     C      0.982950000000     0.642300000000     0.270540000000     0.0556421  
C504     C      0.517560000000     0.642030000000     0.228210000000     0.378351   
C505     C      0.000150000000     0.562450000000     0.749890000000     0.402212   
C506     C      0.499870000000     0.939400000000     0.750560000000     0.405101   
C507     C      0.938480000000     0.501030000000     0.750940000000     0.404616   
C508     C      0.561540000000     0.000670000000     0.749560000000     0.40598    
C509     C      0.500280000000     0.689610000000     0.749480000000     0.439142   
C510     C      0.500160000000     0.812210000000     0.750660000000     0.438574   
C511     C      0.500950000000     0.751260000000     0.688710000000     0.41042    
C512     C      0.499540000000     0.750380000000     0.811380000000     0.4111     
C513     C      0.811290000000     0.500110000000     0.751950000000     0.438731   
C514     C      0.688730000000     0.499510000000     0.748850000000     0.438603   
C515     C      0.752110000000     0.499650000000     0.688950000000     0.402745   
C516     C      0.747930000000     0.499700000000     0.811580000000     0.417931   
C517     C      0.752770000000     0.499910000000     0.561690000000     0.439764   
C518     C      0.747450000000     0.000030000000     0.938850000000     0.432301   
C519     C      0.749940000000     0.561550000000     0.500380000000     0.416584   
C520     C      0.750310000000     0.938640000000     0.000200000000     0.404893   
C521     C      0.501970000000     0.750330000000     0.561370000000     0.437986   
C522     C      0.998750000000     0.749380000000     0.938720000000     0.446126   
C523     C      0.561500000000     0.749810000000     0.497780000000     0.450539   
C524     C      0.938860000000     0.749640000000     0.002210000000     0.402552   
C525     C      0.749890000000     0.688650000000     0.500680000000     0.441169   
C526     C      0.750500000000     0.811530000000     0.500230000000     0.446973   
C527     C      0.688770000000     0.749960000000     0.497910000000     0.408521   
C528     C      0.811610000000     0.749840000000     0.503000000000     0.445466   
C529     C      0.891150000000     0.729140000000     0.485110000000     0.0239702  
C530     C      0.891580000000     0.769400000000     0.022020000000    -0.070751   
C531     C      0.858940000000     0.730100000000     0.484510000000     0.055935   
C532     C      0.859250000000     0.768340000000     0.023570000000     0.38378    
C533     C      0.641180000000     0.731900000000     0.517750000000     0.0290211  
C534     C      0.641400000000     0.766620000000     0.975590000000    -0.0674609  
C535     C      0.608990000000     0.730950000000     0.516850000000     0.0642542  
C536     C      0.609050000000     0.767920000000     0.976580000000     0.38808    
C537     C      0.728300000000     0.891110000000     0.016110000000     0.0268941  
C538     C      0.772690000000     0.891300000000     0.484250000000    -0.0697615  
C539     C      0.729390000000     0.858870000000     0.017370000000     0.056356   
C540     C      0.771900000000     0.859020000000     0.482960000000     0.384601   
C541     C      0.768800000000     0.609100000000     0.980910000000     0.0322338  
C542     C      0.730810000000     0.608870000000     0.520180000000    -0.0642177  
C543     C      0.767560000000     0.641340000000     0.979960000000     0.0565272  
C544     C      0.731870000000     0.641140000000     0.521410000000     0.382232   
C545     C      0.765510000000     0.979590000000     0.859280000000     0.0351224  
C546     C      0.727900000000     0.519190000000     0.858890000000    -0.0620444  
C547     C      0.766170000000     0.980600000000     0.891480000000     0.056316   
C548     C      0.726460000000     0.518160000000     0.891220000000     0.38162    
C549     C      0.734830000000     0.979310000000     0.641240000000     0.0239562  
C550     C      0.772020000000     0.519300000000     0.641660000000    -0.0721527  
C551     C      0.734210000000     0.980280000000     0.609040000000     0.0536419  
C552     C      0.773530000000     0.518240000000     0.609330000000     0.378538   
C553     C      0.978630000000     0.767840000000     0.858980000000     0.0311378  
C554     C      0.519590000000     0.731730000000     0.858840000000    -0.0672211  
C555     C      0.979420000000     0.768540000000     0.891260000000     0.0579132  
C556     C      0.518520000000     0.730330000000     0.891090000000     0.385015   
C557     C      0.981170000000     0.732810000000     0.641070000000     0.0321325  
C558     C      0.021960000000     0.769110000000     0.641290000000    -0.0694995  
C559     C      0.982540000000     0.731520000000     0.608850000000     0.0564464  
C560     C      0.021450000000     0.769920000000     0.608980000000     0.378595   
C561     C      0.609070000000     0.516020000000     0.727020000000     0.0255612  
C562     C      0.608930000000     0.984120000000     0.771370000000    -0.0664691  
C563     C      0.641350000000     0.516880000000     0.727810000000     0.0536152  
C564     C      0.641170000000     0.982490000000     0.770320000000     0.380129   
C565     C      0.890880000000     0.984580000000     0.729480000000     0.0275804  
C566     C      0.891150000000     0.016860000000     0.773540000000    -0.0728645  
C567     C      0.858660000000     0.983090000000     0.730830000000     0.0547164  
C568     C      0.858840000000     0.017850000000     0.773030000000     0.376995   
C569     C      0.983790000000     0.891810000000     0.728740000000     0.0246408  
C570     C      0.516020000000     0.892060000000     0.772850000000    -0.0710224  
C571     C      0.982680000000     0.859570000000     0.729790000000     0.0554684  
C572     C      0.517360000000     0.859780000000     0.772060000000     0.379526   
C573     C      0.984150000000     0.610060000000     0.771690000000     0.0277428  
C574     C      0.516250000000     0.609750000000     0.727490000000    -0.0715318  
C575     C      0.982950000000     0.642300000000     0.770540000000     0.0556409  
C576     C      0.517560000000     0.642030000000     0.728200000000     0.378458   
Cu1      Cu     0.499720000000     0.500770000000     0.221620000000     0.86326    
Cu2      Cu     0.000290000000     0.001090000000     0.278840000000     0.859336   
Cu3      Cu     0.471930000000     0.250880000000     0.249760000000     0.857916   
Cu4      Cu     0.028540000000     0.250930000000     0.250330000000     0.881377   
Cu5      Cu     0.250160000000     0.471490000000     0.250280000000     0.872266   
Cu6      Cu     0.249850000000     0.028080000000     0.250250000000     0.865425   
Cu7      Cu     0.278590000000     0.000200000000     0.498590000000     0.86971    
Cu8      Cu     0.221640000000     0.500020000000     0.001960000000     0.877113   
Cu9      Cu     0.000230000000     0.221530000000     0.500270000000     0.870937   
Cu10     Cu     0.500150000000     0.278150000000     0.999810000000     0.879719   
Cu11     Cu     0.248560000000     0.250230000000     0.028930000000     0.888772   
Cu12     Cu     0.251830000000     0.249990000000     0.471970000000     0.878296   
Cu13     Cu     0.499720000000     0.500770000000     0.721620000000     0.863241   
Cu14     Cu     0.000290000000     0.001090000000     0.778840000000     0.859338   
Cu15     Cu     0.471930000000     0.250880000000     0.749760000000     0.857919   
Cu16     Cu     0.028540000000     0.250930000000     0.750330000000     0.881346   
Cu17     Cu     0.250160000000     0.471490000000     0.750280000000     0.87228    
Cu18     Cu     0.249850000000     0.028080000000     0.750250000000     0.865416   
Cu19     Cu     0.278590000000     0.000200000000     0.998590000000     0.870839   
Cu20     Cu     0.221640000000     0.500020000000     0.501960000000     0.877786   
Cu21     Cu     0.000230000000     0.221530000000     0.000280000000     0.869994   
Cu22     Cu     0.500150000000     0.278150000000     0.499810000000     0.878539   
Cu23     Cu     0.248560000000     0.250230000000     0.528930000000     0.889112   
Cu24     Cu     0.251830000000     0.249990000000     0.971970000000     0.878624   
Cu25     Cu     0.499720000000     0.000770000000     0.221620000000     0.860144   
Cu26     Cu     0.000290000000     0.501080000000     0.278840000000     0.862418   
Cu27     Cu     0.471930000000     0.750880000000     0.249760000000     0.857948   
Cu28     Cu     0.028540000000     0.750930000000     0.250330000000     0.881407   
Cu29     Cu     0.250160000000     0.971490000000     0.250280000000     0.875956   
Cu30     Cu     0.249850000000     0.528080000000     0.250250000000     0.868076   
Cu31     Cu     0.278590000000     0.500200000000     0.498590000000     0.875399   
Cu32     Cu     0.221640000000     0.000020000000     0.001960000000     0.871484   
Cu33     Cu     0.000230000000     0.721530000000     0.500270000000     0.871035   
Cu34     Cu     0.500150000000     0.778150000000     0.999810000000     0.879997   
Cu35     Cu     0.248560000000     0.750220000000     0.028930000000     0.888649   
Cu36     Cu     0.251830000000     0.749990000000     0.471970000000     0.878345   
Cu37     Cu     0.499720000000     0.000770000000     0.721620000000     0.860123   
Cu38     Cu     0.000290000000     0.501080000000     0.778840000000     0.862417   
Cu39     Cu     0.471930000000     0.750880000000     0.749760000000     0.857951   
Cu40     Cu     0.028540000000     0.750930000000     0.750330000000     0.881377   
Cu41     Cu     0.250160000000     0.971490000000     0.750280000000     0.875969   
Cu42     Cu     0.249850000000     0.528080000000     0.750250000000     0.868068   
Cu43     Cu     0.278590000000     0.500200000000     0.998590000000     0.876508   
Cu44     Cu     0.221640000000     0.000020000000     0.501960000000     0.872138   
Cu45     Cu     0.000230000000     0.721530000000     0.000280000000     0.87009    
Cu46     Cu     0.500150000000     0.778150000000     0.499810000000     0.878822   
Cu47     Cu     0.248560000000     0.750220000000     0.528930000000     0.88899    
Cu48     Cu     0.251830000000     0.749990000000     0.971970000000     0.878672   
Cu49     Cu     0.999720000000     0.500770000000     0.221620000000     0.871013   
Cu50     Cu     0.500300000000     0.001090000000     0.278840000000     0.866835   
Cu51     Cu     0.971930000000     0.250880000000     0.249760000000     0.860141   
Cu52     Cu     0.528540000000     0.250930000000     0.250330000000     0.884107   
Cu53     Cu     0.750160000000     0.471490000000     0.250280000000     0.872296   
Cu54     Cu     0.749850000000     0.028080000000     0.250250000000     0.86545    
Cu55     Cu     0.778590000000     0.000200000000     0.498590000000     0.869928   
Cu56     Cu     0.721640000000     0.500020000000     0.001960000000     0.877208   
Cu57     Cu     0.500230000000     0.221530000000     0.500270000000     0.875261   
Cu58     Cu     0.000150000000     0.278150000000     0.999810000000     0.875434   
Cu59     Cu     0.748560000000     0.250230000000     0.028930000000     0.888915   
Cu60     Cu     0.751830000000     0.249990000000     0.471970000000     0.878326   
Cu61     Cu     0.999720000000     0.500770000000     0.721620000000     0.870995   
Cu62     Cu     0.500300000000     0.001090000000     0.778840000000     0.866836   
Cu63     Cu     0.971930000000     0.250880000000     0.749760000000     0.860144   
Cu64     Cu     0.528540000000     0.250930000000     0.750330000000     0.884076   
Cu65     Cu     0.750160000000     0.471490000000     0.750280000000     0.87231    
Cu66     Cu     0.749850000000     0.028080000000     0.750250000000     0.865441   
Cu67     Cu     0.778590000000     0.000200000000     0.998590000000     0.871053   
Cu68     Cu     0.721640000000     0.500020000000     0.501960000000     0.877882   
Cu69     Cu     0.500230000000     0.221530000000     0.000280000000     0.874301   
Cu70     Cu     0.000150000000     0.278150000000     0.499810000000     0.87424    
Cu71     Cu     0.748560000000     0.250230000000     0.528930000000     0.889255   
Cu72     Cu     0.751830000000     0.249990000000     0.971970000000     0.878654   
Cu73     Cu     0.999720000000     0.000770000000     0.221620000000     0.867896   
Cu74     Cu     0.500300000000     0.501080000000     0.278840000000     0.869937   
Cu75     Cu     0.971930000000     0.750880000000     0.249760000000     0.860172   
Cu76     Cu     0.528540000000     0.750930000000     0.250330000000     0.884136   
Cu77     Cu     0.750160000000     0.971490000000     0.250280000000     0.875984   
Cu78     Cu     0.749850000000     0.528080000000     0.250250000000     0.8681     
Cu79     Cu     0.778590000000     0.500200000000     0.498590000000     0.875612   
Cu80     Cu     0.721640000000     0.000020000000     0.001960000000     0.871578   
Cu81     Cu     0.500230000000     0.721530000000     0.500270000000     0.87536    
Cu82     Cu     0.000150000000     0.778150000000     0.999810000000     0.875714   
Cu83     Cu     0.748560000000     0.750220000000     0.028930000000     0.888791   
Cu84     Cu     0.751830000000     0.749990000000     0.471970000000     0.878376   
Cu85     Cu     0.999720000000     0.000770000000     0.721620000000     0.867877   
Cu86     Cu     0.500300000000     0.501080000000     0.778840000000     0.869935   
Cu87     Cu     0.971930000000     0.750880000000     0.749760000000     0.860174   
Cu88     Cu     0.528540000000     0.750930000000     0.750330000000     0.884106   
Cu89     Cu     0.750160000000     0.971490000000     0.750280000000     0.875997   
Cu90     Cu     0.749850000000     0.528080000000     0.750250000000     0.868092   
Cu91     Cu     0.778590000000     0.500200000000     0.998590000000     0.876718   
Cu92     Cu     0.721640000000     0.000020000000     0.501960000000     0.872233   
Cu93     Cu     0.500230000000     0.721530000000     0.000280000000     0.874399   
Cu94     Cu     0.000150000000     0.778150000000     0.499810000000     0.874525   
Cu95     Cu     0.748560000000     0.750220000000     0.528930000000     0.889132   
Cu96     Cu     0.751830000000     0.749990000000     0.971970000000     0.878702   
F1       F      0.344370000000     0.288170000000     0.542880000000    -0.429954   
F2       F      0.094030000000     0.286110000000     0.455820000000    -0.423727   
F3       F      0.293840000000     0.344030000000     0.966170000000    -0.430477   
F4       F      0.213300000000     0.156120000000     0.041880000000    -0.435153   
F5       F      0.206840000000     0.037670000000     0.406130000000    -0.43075    
F6       F      0.292970000000     0.037940000000     0.094440000000    -0.435344   
F7       F      0.038820000000     0.211500000000     0.405960000000    -0.426653   
F8       F      0.541820000000     0.288650000000     0.094070000000    -0.433889   
F9       F      0.156130000000     0.465610000000     0.292220000000    -0.431513   
F10      F      0.343880000000     0.534710000000     0.294940000000    -0.437443   
F11      F      0.034330000000     0.344850000000     0.293910000000    -0.430839   
F12      F      0.034480000000     0.156950000000     0.206310000000    -0.435903   
F13      F      0.344370000000     0.288170000000     0.042880000000    -0.429993   
F14      F      0.094030000000     0.286110000000     0.955820000000    -0.423684   
F15      F      0.293840000000     0.344030000000     0.466170000000    -0.430545   
F16      F      0.213300000000     0.156120000000     0.541880000000    -0.43514    
F17      F      0.206840000000     0.037670000000     0.906130000000    -0.430696   
F18      F      0.292970000000     0.037940000000     0.594440000000    -0.435318   
F19      F      0.038820000000     0.211500000000     0.905960000000    -0.426676   
F20      F      0.541820000000     0.288650000000     0.594070000000    -0.433848   
F21      F      0.156130000000     0.465610000000     0.792220000000    -0.431501   
F22      F      0.343880000000     0.534710000000     0.794940000000    -0.437428   
F23      F      0.034330000000     0.344850000000     0.793910000000    -0.430827   
F24      F      0.034480000000     0.156950000000     0.706310000000    -0.435974   
F25      F      0.344370000000     0.788170000000     0.542880000000    -0.42985    
F26      F      0.094030000000     0.786110000000     0.455820000000    -0.423599   
F27      F      0.293840000000     0.844030000000     0.966170000000    -0.43034    
F28      F      0.213300000000     0.656110000000     0.041880000000    -0.435127   
F29      F      0.206840000000     0.537670000000     0.406130000000    -0.430796   
F30      F      0.292970000000     0.537940000000     0.094440000000    -0.435125   
F31      F      0.038820000000     0.711500000000     0.405960000000    -0.426577   
F32      F      0.541820000000     0.788650000000     0.094070000000    -0.433759   
F33      F      0.156130000000     0.965610000000     0.292220000000    -0.430873   
F34      F      0.343880000000     0.034710000000     0.294940000000    -0.437859   
F35      F      0.034330000000     0.844850000000     0.293910000000    -0.430675   
F36      F      0.034480000000     0.656950000000     0.206310000000    -0.435834   
F37      F      0.344370000000     0.788170000000     0.042880000000    -0.42989    
F38      F      0.094030000000     0.786110000000     0.955820000000    -0.423557   
F39      F      0.293840000000     0.844030000000     0.466170000000    -0.430407   
F40      F      0.213300000000     0.656110000000     0.541880000000    -0.435114   
F41      F      0.206840000000     0.537670000000     0.906130000000    -0.430742   
F42      F      0.292970000000     0.537940000000     0.594440000000    -0.435098   
F43      F      0.038820000000     0.711500000000     0.905960000000    -0.4266     
F44      F      0.541820000000     0.788650000000     0.594070000000    -0.433718   
F45      F      0.156130000000     0.965610000000     0.792220000000    -0.430862   
F46      F      0.343880000000     0.034710000000     0.794940000000    -0.437843   
F47      F      0.034330000000     0.844850000000     0.793910000000    -0.430663   
F48      F      0.034480000000     0.656950000000     0.706310000000    -0.435905   
F49      F      0.844370000000     0.288170000000     0.542880000000    -0.429862   
F50      F      0.594030000000     0.286110000000     0.455820000000    -0.423472   
F51      F      0.793840000000     0.344030000000     0.966170000000    -0.430415   
F52      F      0.713300000000     0.156120000000     0.041880000000    -0.435108   
F53      F      0.706840000000     0.037670000000     0.406130000000    -0.43068    
F54      F      0.792970000000     0.037940000000     0.094440000000    -0.435243   
F55      F      0.538820000000     0.211500000000     0.405960000000    -0.426492   
F56      F      0.041820000000     0.288650000000     0.094070000000    -0.434066   
F57      F      0.656130000000     0.465610000000     0.292220000000    -0.431438   
F58      F      0.843880000000     0.534710000000     0.294940000000    -0.437335   
F59      F      0.534330000000     0.344850000000     0.293910000000    -0.43037    
F60      F      0.534480000000     0.156950000000     0.206310000000    -0.435618   
F61      F      0.844370000000     0.288170000000     0.042880000000    -0.429902   
F62      F      0.594030000000     0.286110000000     0.955820000000    -0.42343    
F63      F      0.793840000000     0.344030000000     0.466170000000    -0.430483   
F64      F      0.713300000000     0.156120000000     0.541880000000    -0.435095   
F65      F      0.706840000000     0.037670000000     0.906130000000    -0.430626   
F66      F      0.792970000000     0.037940000000     0.594440000000    -0.435217   
F67      F      0.538820000000     0.211500000000     0.905960000000    -0.426515   
F68      F      0.041820000000     0.288650000000     0.594070000000    -0.434026   
F69      F      0.656130000000     0.465610000000     0.792220000000    -0.431427   
F70      F      0.843880000000     0.534710000000     0.794940000000    -0.437319   
F71      F      0.534330000000     0.344850000000     0.793910000000    -0.430358   
F72      F      0.534480000000     0.156950000000     0.706310000000    -0.435689   
F73      F      0.844370000000     0.788170000000     0.542880000000    -0.42976    
F74      F      0.594030000000     0.786110000000     0.455820000000    -0.423344   
F75      F      0.793840000000     0.844030000000     0.966170000000    -0.430278   
F76      F      0.713300000000     0.656110000000     0.041880000000    -0.435082   
F77      F      0.706840000000     0.537670000000     0.406130000000    -0.430725   
F78      F      0.792970000000     0.537940000000     0.094440000000    -0.435024   
F79      F      0.538820000000     0.711500000000     0.405960000000    -0.426415   
F80      F      0.041820000000     0.788650000000     0.094070000000    -0.433936   
F81      F      0.656130000000     0.965610000000     0.292220000000    -0.430798   
F82      F      0.843880000000     0.034710000000     0.294940000000    -0.43775    
F83      F      0.534330000000     0.844850000000     0.293910000000    -0.430206   
F84      F      0.534480000000     0.656950000000     0.206310000000    -0.435549   
F85      F      0.844370000000     0.788170000000     0.042880000000    -0.429799   
F86      F      0.594030000000     0.786110000000     0.955820000000    -0.423303   
F87      F      0.793840000000     0.844030000000     0.466170000000    -0.430345   
F88      F      0.713300000000     0.656110000000     0.541880000000    -0.435069   
F89      F      0.706840000000     0.537670000000     0.906130000000    -0.430671   
F90      F      0.792970000000     0.537940000000     0.594440000000    -0.434997   
F91      F      0.538820000000     0.711500000000     0.905960000000    -0.426439   
F92      F      0.041820000000     0.788650000000     0.594070000000    -0.433895   
F93      F      0.656130000000     0.965610000000     0.792220000000    -0.430787   
F94      F      0.843880000000     0.034710000000     0.794940000000    -0.437734   
F95      F      0.534330000000     0.844850000000     0.793910000000    -0.430194   
F96      F      0.534480000000     0.656950000000     0.706310000000    -0.435619   
H1       H      0.346850000000     0.214490000000     0.969020000000     0.0405145  
H2       H      0.402900000000     0.213160000000     0.969760000000     0.0494668  
H3       H      0.403820000000     0.285500000000     0.536860000000     0.10327    
H4       H      0.097040000000     0.216330000000     0.033380000000     0.0519733  
H5       H      0.153050000000     0.217610000000     0.034610000000     0.0691285  
H6       H      0.153540000000     0.280780000000     0.458820000000     0.106223   
H7       H      0.212140000000     0.346780000000     0.531000000000     0.0440916  
H8       H      0.210560000000     0.403050000000     0.529230000000     0.0493266  
H9       H      0.290380000000     0.403430000000     0.971240000000     0.101978   
H10      H      0.282120000000     0.153450000000     0.463510000000     0.0412888  
H11      H      0.283910000000     0.097180000000     0.464810000000     0.0537483  
H12      H      0.215710000000     0.096720000000     0.036110000000     0.10617    
H13      H      0.281950000000     0.465260000000     0.403550000000     0.0455791  
H14      H      0.281120000000     0.463850000000     0.347530000000     0.056066   
H15      H      0.212750000000     0.035010000000     0.346670000000     0.108916   
H16      H      0.218610000000     0.464780000000     0.096960000000     0.0405803  
H17      H      0.219370000000     0.463420000000     0.152990000000     0.0496166  
H18      H      0.286990000000     0.035280000000     0.153890000000     0.102352   
H19      H      0.463410000000     0.283650000000     0.403290000000     0.0457797  
H20      H      0.462380000000     0.282790000000     0.347080000000     0.0546337  
H21      H      0.036050000000     0.217120000000     0.346780000000     0.10696    
H22      H      0.466740000000     0.216170000000     0.096860000000     0.0445456  
H23      H      0.464770000000     0.217990000000     0.152930000000     0.0546033  
H24      H      0.538120000000     0.284010000000     0.153390000000     0.104187   
H25      H      0.153450000000     0.030410000000     0.210480000000     0.0429703  
H26      H      0.097120000000     0.029280000000     0.209400000000     0.0496051  
H27      H      0.096830000000     0.471220000000     0.289170000000     0.10537    
H28      H      0.346580000000     0.969240000000     0.213750000000     0.0417113  
H29      H      0.402770000000     0.471380000000     0.211760000000     0.0475322  
H30      H      0.403300000000     0.530150000000     0.291010000000     0.0995839  
H31      H      0.468980000000     0.347480000000     0.212590000000     0.041593   
H32      H      0.470510000000     0.403710000000     0.211100000000     0.0475585  
H33      H      0.029160000000     0.404190000000     0.290440000000     0.105256   
H34      H      0.469250000000     0.154420000000     0.287710000000     0.0421071  
H35      H      0.470920000000     0.098180000000     0.289390000000     0.050165   
H36      H      0.029360000000     0.097580000000     0.209890000000     0.0999679  
H37      H      0.346850000000     0.214490000000     0.469030000000     0.0404926  
H38      H      0.402900000000     0.213160000000     0.469760000000     0.0494591  
H39      H      0.403820000000     0.285500000000     0.036860000000     0.103264   
H40      H      0.097040000000     0.216330000000     0.533380000000     0.0519619  
H41      H      0.153050000000     0.217610000000     0.534610000000     0.0690956  
H42      H      0.153540000000     0.280780000000     0.958820000000     0.106241   
H43      H      0.212140000000     0.346780000000     0.031000000000     0.0440722  
H44      H      0.210560000000     0.403050000000     0.029230000000     0.0493117  
H45      H      0.290380000000     0.403430000000     0.471240000000     0.101948   
H46      H      0.282120000000     0.153450000000     0.963510000000     0.0413054  
H47      H      0.283910000000     0.097180000000     0.964820000000     0.0537478  
H48      H      0.215710000000     0.096720000000     0.536110000000     0.10617    
H49      H      0.281950000000     0.465260000000     0.903550000000     0.0456097  
H50      H      0.281120000000     0.463850000000     0.847530000000     0.0560804  
H51      H      0.212750000000     0.035010000000     0.846670000000     0.108961   
H52      H      0.218610000000     0.464780000000     0.596960000000     0.0405745  
H53      H      0.219370000000     0.463420000000     0.652990000000     0.0496233  
H54      H      0.286990000000     0.035280000000     0.653890000000     0.102358   
H55      H      0.463410000000     0.283650000000     0.903290000000     0.0457875  
H56      H      0.462380000000     0.282790000000     0.847080000000     0.054646   
H57      H      0.036050000000     0.217120000000     0.846780000000     0.106977   
H58      H      0.466740000000     0.216170000000     0.596860000000     0.0445635  
H59      H      0.464770000000     0.217990000000     0.652930000000     0.0546081  
H60      H      0.538120000000     0.284010000000     0.653390000000     0.104193   
H61      H      0.153450000000     0.030410000000     0.710480000000     0.0429712  
H62      H      0.097120000000     0.029280000000     0.709400000000     0.0496094  
H63      H      0.096830000000     0.471220000000     0.789160000000     0.105414   
H64      H      0.346580000000     0.969240000000     0.713750000000     0.0417131  
H65      H      0.402770000000     0.471380000000     0.711760000000     0.0475425  
H66      H      0.403300000000     0.530150000000     0.791010000000     0.0996043  
H67      H      0.468980000000     0.347480000000     0.712590000000     0.041598   
H68      H      0.470510000000     0.403710000000     0.711100000000     0.0475651  
H69      H      0.029160000000     0.404190000000     0.790440000000     0.10527    
H70      H      0.469250000000     0.154420000000     0.787710000000     0.0421162  
H71      H      0.470920000000     0.098180000000     0.789390000000     0.050178   
H72      H      0.029360000000     0.097580000000     0.709890000000     0.0999795  
H73      H      0.346850000000     0.714490000000     0.969020000000     0.0405553  
H74      H      0.402900000000     0.713160000000     0.969760000000     0.0495286  
H75      H      0.403820000000     0.785500000000     0.536860000000     0.103369   
H76      H      0.097040000000     0.716340000000     0.033380000000     0.052027   
H77      H      0.153050000000     0.717610000000     0.034610000000     0.0691732  
H78      H      0.153540000000     0.780780000000     0.458820000000     0.106294   
H79      H      0.212140000000     0.846780000000     0.531000000000     0.0441874  
H80      H      0.210560000000     0.903050000000     0.529230000000     0.0496066  
H81      H      0.290380000000     0.903430000000     0.971240000000     0.102274   
H82      H      0.282120000000     0.653450000000     0.463510000000     0.0413462  
H83      H      0.283910000000     0.597180000000     0.464810000000     0.0539464  
H84      H      0.215710000000     0.596720000000     0.036110000000     0.106437   
H85      H      0.281950000000     0.965260000000     0.403550000000     0.0461755  
H86      H      0.281120000000     0.963850000000     0.347530000000     0.0563     
H87      H      0.212750000000     0.535010000000     0.346670000000     0.108964   
H88      H      0.218610000000     0.964780000000     0.096960000000     0.0408207  
H89      H      0.219370000000     0.963420000000     0.152990000000     0.0498348  
H90      H      0.286990000000     0.535280000000     0.153890000000     0.102341   
H91      H      0.463410000000     0.783650000000     0.403290000000     0.0458801  
H92      H      0.462380000000     0.782790000000     0.347080000000     0.054714   
H93      H      0.036050000000     0.717120000000     0.346780000000     0.107      
H94      H      0.466740000000     0.716170000000     0.096860000000     0.0445948  
H95      H      0.464770000000     0.717990000000     0.152930000000     0.0546434  
H96      H      0.538120000000     0.784010000000     0.153390000000     0.104266   
H97      H      0.153450000000     0.530410000000     0.210480000000     0.0428007  
H98      H      0.097120000000     0.529280000000     0.209400000000     0.0501019  
H99      H      0.096830000000     0.971220000000     0.289170000000     0.105449   
H100     H      0.346580000000     0.469240000000     0.213750000000     0.0415686  
H101     H      0.402770000000     0.971380000000     0.211760000000     0.0478683  
H102     H      0.403300000000     0.030150000000     0.291010000000     0.0993838  
H103     H      0.468980000000     0.847480000000     0.212590000000     0.0417071  
H104     H      0.470510000000     0.903710000000     0.211100000000     0.0479285  
H105     H      0.029160000000     0.904190000000     0.290440000000     0.105593   
H106     H      0.469250000000     0.654420000000     0.287710000000     0.0421554  
H107     H      0.470920000000     0.598180000000     0.289390000000     0.0502727  
H108     H      0.029360000000     0.597580000000     0.209890000000     0.10008    
H109     H      0.346850000000     0.714490000000     0.469030000000     0.0405335  
H110     H      0.402900000000     0.713160000000     0.469760000000     0.0495212  
H111     H      0.403820000000     0.785500000000     0.036860000000     0.103363   
H112     H      0.097040000000     0.716340000000     0.533380000000     0.0520159  
H113     H      0.153050000000     0.717610000000     0.534610000000     0.0691405  
H114     H      0.153540000000     0.780780000000     0.958820000000     0.106312   
H115     H      0.212140000000     0.846780000000     0.031000000000     0.0441676  
H116     H      0.210560000000     0.903050000000     0.029230000000     0.0495907  
H117     H      0.290380000000     0.903430000000     0.471240000000     0.102245   
H118     H      0.282120000000     0.653450000000     0.963510000000     0.0413625  
H119     H      0.283910000000     0.597180000000     0.964820000000     0.0539454  
H120     H      0.215710000000     0.596720000000     0.536110000000     0.106438   
H121     H      0.281950000000     0.965260000000     0.903550000000     0.0462045  
H122     H      0.281120000000     0.963850000000     0.847530000000     0.0563141  
H123     H      0.212750000000     0.535010000000     0.846670000000     0.10901    
H124     H      0.218610000000     0.964780000000     0.596960000000     0.0408156  
H125     H      0.219370000000     0.963420000000     0.652990000000     0.0498416  
H126     H      0.286990000000     0.535280000000     0.653890000000     0.102347   
H127     H      0.463410000000     0.783650000000     0.903290000000     0.0458875  
H128     H      0.462380000000     0.782790000000     0.847080000000     0.0547261  
H129     H      0.036050000000     0.717120000000     0.846780000000     0.107017   
H130     H      0.466740000000     0.716170000000     0.596860000000     0.0446129  
H131     H      0.464770000000     0.717990000000     0.652930000000     0.0546483  
H132     H      0.538120000000     0.784010000000     0.653390000000     0.104273   
H133     H      0.153450000000     0.530410000000     0.710480000000     0.0428022  
H134     H      0.097120000000     0.529280000000     0.709400000000     0.0501065  
H135     H      0.096830000000     0.971220000000     0.789160000000     0.105493   
H136     H      0.346580000000     0.469240000000     0.713750000000     0.0415698  
H137     H      0.402770000000     0.971380000000     0.711760000000     0.0478791  
H138     H      0.403300000000     0.030150000000     0.791010000000     0.0994047  
H139     H      0.468980000000     0.847480000000     0.712590000000     0.0417122  
H140     H      0.470510000000     0.903710000000     0.711100000000     0.0479354  
H141     H      0.029160000000     0.904190000000     0.790440000000     0.105606   
H142     H      0.469250000000     0.654420000000     0.787710000000     0.0421643  
H143     H      0.470920000000     0.598180000000     0.789390000000     0.0502855  
H144     H      0.029360000000     0.597580000000     0.709890000000     0.100092   
H145     H      0.846850000000     0.214490000000     0.969020000000     0.0405627  
H146     H      0.902900000000     0.213160000000     0.969760000000     0.0497175  
H147     H      0.903820000000     0.285500000000     0.536860000000     0.103594   
H148     H      0.597040000000     0.216330000000     0.033380000000     0.0521119  
H149     H      0.653050000000     0.217610000000     0.034610000000     0.0691741  
H150     H      0.653540000000     0.280780000000     0.458820000000     0.106275   
H151     H      0.712140000000     0.346780000000     0.531000000000     0.0441698  
H152     H      0.710550000000     0.403050000000     0.529230000000     0.0493541  
H153     H      0.790380000000     0.403430000000     0.971240000000     0.10206    
H154     H      0.782120000000     0.153450000000     0.463510000000     0.0413435  
H155     H      0.783910000000     0.097180000000     0.464810000000     0.0538085  
H156     H      0.715710000000     0.096720000000     0.036110000000     0.106228   
H157     H      0.781950000000     0.465260000000     0.403550000000     0.0456486  
H158     H      0.781120000000     0.463850000000     0.347530000000     0.056123   
H159     H      0.712750000000     0.035010000000     0.346670000000     0.108953   
H160     H      0.718610000000     0.464780000000     0.096960000000     0.040635   
H161     H      0.719370000000     0.463420000000     0.152990000000     0.0496651  
H162     H      0.786990000000     0.035280000000     0.153890000000     0.102407   
H163     H      0.963410000000     0.283650000000     0.403290000000     0.0459717  
H164     H      0.962380000000     0.282790000000     0.347080000000     0.0548406  
H165     H      0.536050000000     0.217120000000     0.346780000000     0.106911   
H166     H      0.966740000000     0.216170000000     0.096860000000     0.044604   
H167     H      0.964770000000     0.217990000000     0.152930000000     0.054664   
H168     H      0.038120000000     0.284010000000     0.153390000000     0.104055   
H169     H      0.653450000000     0.030410000000     0.210480000000     0.0430383  
H170     H      0.597120000000     0.029280000000     0.209400000000     0.049781   
H171     H      0.596830000000     0.471220000000     0.289170000000     0.105496   
H172     H      0.846580000000     0.969240000000     0.213750000000     0.0417739  
H173     H      0.902770000000     0.471380000000     0.211760000000     0.0476638  
H174     H      0.903300000000     0.530150000000     0.291010000000     0.0998158  
H175     H      0.968980000000     0.347480000000     0.212590000000     0.041497   
H176     H      0.970510000000     0.403710000000     0.211100000000     0.0479459  
H177     H      0.529160000000     0.404190000000     0.290440000000     0.105029   
H178     H      0.969250000000     0.154420000000     0.287710000000     0.0421874  
H179     H      0.970920000000     0.098180000000     0.289390000000     0.0502572  
H180     H      0.529360000000     0.097580000000     0.209890000000     0.100146   
H181     H      0.846850000000     0.214490000000     0.469030000000     0.0405411  
H182     H      0.902900000000     0.213160000000     0.469760000000     0.0497107  
H183     H      0.903820000000     0.285500000000     0.036860000000     0.103588   
H184     H      0.597040000000     0.216330000000     0.533380000000     0.0521009  
H185     H      0.653050000000     0.217610000000     0.534610000000     0.0691413  
H186     H      0.653540000000     0.280780000000     0.958820000000     0.106293   
H187     H      0.712140000000     0.346780000000     0.031000000000     0.0441502  
H188     H      0.710550000000     0.403050000000     0.029230000000     0.0493388  
H189     H      0.790380000000     0.403430000000     0.471240000000     0.10203    
H190     H      0.782120000000     0.153450000000     0.963510000000     0.0413598  
H191     H      0.783910000000     0.097180000000     0.964820000000     0.0538077  
H192     H      0.715710000000     0.096720000000     0.536110000000     0.106229   
H193     H      0.781950000000     0.465260000000     0.903550000000     0.045679   
H194     H      0.781120000000     0.463850000000     0.847530000000     0.0561373  
H195     H      0.712750000000     0.035010000000     0.846670000000     0.108998   
H196     H      0.718610000000     0.464780000000     0.596960000000     0.0406292  
H197     H      0.719370000000     0.463420000000     0.652990000000     0.0496718  
H198     H      0.786990000000     0.035280000000     0.653890000000     0.102413   
H199     H      0.963410000000     0.283650000000     0.903290000000     0.045979   
H200     H      0.962380000000     0.282790000000     0.847080000000     0.0548525  
H201     H      0.536050000000     0.217120000000     0.846780000000     0.106928   
H202     H      0.966740000000     0.216170000000     0.596860000000     0.0446221  
H203     H      0.964770000000     0.217990000000     0.652930000000     0.0546689  
H204     H      0.038120000000     0.284010000000     0.653390000000     0.104061   
H205     H      0.653450000000     0.030410000000     0.710480000000     0.0430393  
H206     H      0.597120000000     0.029280000000     0.709400000000     0.0497855  
H207     H      0.596830000000     0.471220000000     0.789160000000     0.105541   
H208     H      0.846580000000     0.969240000000     0.713750000000     0.0417758  
H209     H      0.902770000000     0.471380000000     0.711760000000     0.0476742  
H210     H      0.903300000000     0.530150000000     0.791010000000     0.0998358  
H211     H      0.968980000000     0.347480000000     0.712590000000     0.0415025  
H212     H      0.970510000000     0.403710000000     0.711100000000     0.0479528  
H213     H      0.529160000000     0.404190000000     0.790440000000     0.105043   
H214     H      0.969250000000     0.154420000000     0.787710000000     0.042196   
H215     H      0.970920000000     0.098180000000     0.789390000000     0.0502697  
H216     H      0.529360000000     0.097580000000     0.709890000000     0.100157   
H217     H      0.846850000000     0.714490000000     0.969020000000     0.0406034  
H218     H      0.902900000000     0.713160000000     0.969760000000     0.0497792  
H219     H      0.903820000000     0.785500000000     0.536860000000     0.103693   
H220     H      0.597040000000     0.716340000000     0.033380000000     0.0521658  
H221     H      0.653050000000     0.717610000000     0.034610000000     0.0692189  
H222     H      0.653540000000     0.780780000000     0.458820000000     0.106346   
H223     H      0.712140000000     0.846780000000     0.531000000000     0.0442655  
H224     H      0.710550000000     0.903050000000     0.529230000000     0.0496342  
H225     H      0.790380000000     0.903430000000     0.971240000000     0.102355   
H226     H      0.782120000000     0.653450000000     0.463510000000     0.0414008  
H227     H      0.783910000000     0.597180000000     0.464810000000     0.0540065  
H228     H      0.715710000000     0.596720000000     0.036110000000     0.106495   
H229     H      0.781950000000     0.965260000000     0.403550000000     0.0462441  
H230     H      0.781120000000     0.963850000000     0.347530000000     0.0563563  
H231     H      0.712750000000     0.535010000000     0.346670000000     0.109001   
H232     H      0.718610000000     0.964780000000     0.096960000000     0.0408754  
H233     H      0.719370000000     0.963420000000     0.152990000000     0.0498834  
H234     H      0.786990000000     0.535280000000     0.153890000000     0.102395   
H235     H      0.963410000000     0.783650000000     0.403290000000     0.0460714  
H236     H      0.962380000000     0.782790000000     0.347080000000     0.0549202  
H237     H      0.536050000000     0.717120000000     0.346780000000     0.106951   
H238     H      0.966740000000     0.716170000000     0.096860000000     0.0446532  
H239     H      0.964770000000     0.717990000000     0.152930000000     0.0547042  
H240     H      0.038120000000     0.784010000000     0.153390000000     0.104134   
H241     H      0.653450000000     0.530410000000     0.210480000000     0.0428685  
H242     H      0.597120000000     0.529280000000     0.209400000000     0.0502786  
H243     H      0.596830000000     0.971220000000     0.289170000000     0.105575   
H244     H      0.846580000000     0.469240000000     0.213750000000     0.0416317  
H245     H      0.902770000000     0.971380000000     0.211760000000     0.0479983  
H246     H      0.903300000000     0.030150000000     0.291010000000     0.0996155  
H247     H      0.968980000000     0.847480000000     0.212590000000     0.041611   
H248     H      0.970510000000     0.903710000000     0.211100000000     0.0483141  
H249     H      0.529160000000     0.904190000000     0.290440000000     0.105367   
H250     H      0.969250000000     0.654420000000     0.287710000000     0.0422355  
H251     H      0.970920000000     0.598180000000     0.289390000000     0.0503647  
H252     H      0.529360000000     0.597580000000     0.209890000000     0.100258   
H253     H      0.846850000000     0.714490000000     0.469030000000     0.0405819  
H254     H      0.902900000000     0.713160000000     0.469760000000     0.0497726  
H255     H      0.903820000000     0.785500000000     0.036860000000     0.103686   
H256     H      0.597040000000     0.716340000000     0.533380000000     0.0521549  
H257     H      0.653050000000     0.717610000000     0.534610000000     0.0691863  
H258     H      0.653540000000     0.780780000000     0.958820000000     0.106364   
H259     H      0.712140000000     0.846780000000     0.031000000000     0.0442456  
H260     H      0.710550000000     0.903050000000     0.029230000000     0.049618   
H261     H      0.790380000000     0.903430000000     0.471240000000     0.102326   
H262     H      0.782120000000     0.653450000000     0.963510000000     0.0414169  
H263     H      0.783910000000     0.597180000000     0.964820000000     0.0540052  
H264     H      0.715710000000     0.596720000000     0.536110000000     0.106497   
H265     H      0.781950000000     0.965260000000     0.903550000000     0.0462729  
H266     H      0.781120000000     0.963850000000     0.847530000000     0.0563702  
H267     H      0.712750000000     0.535010000000     0.846670000000     0.109047   
H268     H      0.718610000000     0.964780000000     0.596960000000     0.0408704  
H269     H      0.719370000000     0.963420000000     0.652990000000     0.0498903  
H270     H      0.786990000000     0.535280000000     0.653890000000     0.102401   
H271     H      0.963410000000     0.783650000000     0.903290000000     0.0460783  
H272     H      0.962380000000     0.782790000000     0.847080000000     0.0549319  
H273     H      0.536050000000     0.717120000000     0.846780000000     0.106969   
H274     H      0.966740000000     0.716170000000     0.596860000000     0.0446714  
H275     H      0.964770000000     0.717990000000     0.652930000000     0.0547092  
H276     H      0.038120000000     0.784010000000     0.653390000000     0.104141   
H277     H      0.653450000000     0.530410000000     0.710480000000     0.0428701  
H278     H      0.597120000000     0.529280000000     0.709400000000     0.0502834  
H279     H      0.596830000000     0.971220000000     0.789160000000     0.105619   
H280     H      0.846580000000     0.469240000000     0.713750000000     0.041633   
H281     H      0.902770000000     0.971380000000     0.711760000000     0.0480093  
H282     H      0.903300000000     0.030150000000     0.791010000000     0.099636   
H283     H      0.968980000000     0.847480000000     0.712590000000     0.0416166  
H284     H      0.970510000000     0.903710000000     0.711100000000     0.0483213  
H285     H      0.529160000000     0.904190000000     0.790440000000     0.10538    
H286     H      0.969250000000     0.654420000000     0.787710000000     0.0422439  
H287     H      0.970920000000     0.598180000000     0.789390000000     0.050377   
H288     H      0.529360000000     0.597580000000     0.709890000000     0.10027    
N1       N      0.407320000000     0.249420000000     0.503170000000    -0.152094   
N2       N      0.343130000000     0.249300000000     0.504050000000    -0.223419   
N3       N      0.157240000000     0.249380000000     0.996840000000    -0.149611   
N4       N      0.093050000000     0.249650000000     0.996970000000    -0.220954   
N5       N      0.250420000000     0.407120000000     0.500170000000    -0.15204    
N6       N      0.250640000000     0.343020000000     0.500130000000    -0.223738   
N7       N      0.249850000000     0.093070000000     0.000500000000    -0.149868   
N8       N      0.249750000000     0.157160000000     0.000750000000    -0.224408   
N9       N      0.247060000000     0.499520000000     0.343130000000    -0.149185   
N10      N      0.246340000000     0.499480000000     0.407330000000    -0.223207   
N11      N      0.253040000000     0.999450000000     0.157410000000    -0.151287   
N12      N      0.253870000000     0.999360000000     0.093210000000    -0.223385   
N13      N      0.499220000000     0.249970000000     0.342940000000    -0.150264   
N14      N      0.498840000000     0.249290000000     0.407160000000    -0.222124   
N15      N      0.001330000000     0.251110000000     0.157140000000    -0.15178    
N16      N      0.002110000000     0.250620000000     0.092930000000    -0.22447    
N17      N      0.093070000000     0.500270000000     0.249290000000    -0.152396   
N18      N      0.157200000000     0.499510000000     0.248950000000    -0.224566   
N19      N      0.406950000000     0.000870000000     0.251290000000    -0.15494    
N20      N      0.342810000000     0.000360000000     0.252060000000    -0.226045   
N21      N      0.999890000000     0.407870000000     0.250720000000    -0.151404   
N22      N      0.000110000000     0.343730000000     0.250890000000    -0.225826   
N23      N      0.500200000000     0.093980000000     0.249700000000    -0.152628   
N24      N      0.500300000000     0.158100000000     0.249350000000    -0.224686   
N25      N      0.407320000000     0.249420000000     0.003170000000    -0.152211   
N26      N      0.343130000000     0.249300000000     0.004060000000    -0.223575   
N27      N      0.157240000000     0.249380000000     0.496850000000    -0.149777   
N28      N      0.093050000000     0.249650000000     0.496970000000    -0.221105   
N29      N      0.250420000000     0.407120000000     0.000170000000    -0.152233   
N30      N      0.250640000000     0.343020000000     0.000130000000    -0.223854   
N31      N      0.249850000000     0.093070000000     0.500500000000    -0.149747   
N32      N      0.249750000000     0.157160000000     0.500750000000    -0.224312   
N33      N      0.247060000000     0.499520000000     0.843130000000    -0.14916    
N34      N      0.246340000000     0.499480000000     0.907330000000    -0.223208   
N35      N      0.253040000000     0.999450000000     0.657410000000    -0.151279   
N36      N      0.253870000000     0.999360000000     0.593220000000    -0.223335   
N37      N      0.499220000000     0.249970000000     0.842940000000    -0.150259   
N38      N      0.498840000000     0.249290000000     0.907160000000    -0.222204   
N39      N      0.001330000000     0.251110000000     0.657140000000    -0.151781   
N40      N      0.002110000000     0.250620000000     0.592930000000    -0.224455   
N41      N      0.093070000000     0.500270000000     0.749290000000    -0.152381   
N42      N      0.157200000000     0.499510000000     0.748950000000    -0.22457    
N43      N      0.406950000000     0.000870000000     0.751290000000    -0.154889   
N44      N      0.342810000000     0.000360000000     0.752060000000    -0.226044   
N45      N      0.999890000000     0.407870000000     0.750720000000    -0.151401   
N46      N      0.000110000000     0.343730000000     0.750890000000    -0.225825   
N47      N      0.500200000000     0.093980000000     0.749700000000    -0.152613   
N48      N      0.500300000000     0.158100000000     0.749350000000    -0.224647   
N49      N      0.407320000000     0.749420000000     0.503170000000    -0.152075   
N50      N      0.343130000000     0.749300000000     0.504050000000    -0.223411   
N51      N      0.157240000000     0.749380000000     0.996840000000    -0.149597   
N52      N      0.093050000000     0.749650000000     0.996970000000    -0.220935   
N53      N      0.250420000000     0.907120000000     0.500170000000    -0.151786   
N54      N      0.250640000000     0.843020000000     0.500130000000    -0.223731   
N55      N      0.249850000000     0.593060000000     0.000500000000    -0.149959   
N56      N      0.249750000000     0.657160000000     0.000750000000    -0.224435   
N57      N      0.247060000000     0.999520000000     0.343130000000    -0.148043   
N58      N      0.246340000000     0.999480000000     0.407330000000    -0.218817   
N59      N      0.253040000000     0.499450000000     0.157410000000    -0.152542   
N60      N      0.253870000000     0.499360000000     0.093210000000    -0.22476    
N61      N      0.499220000000     0.749970000000     0.342940000000    -0.150254   
N62      N      0.498840000000     0.749290000000     0.407160000000    -0.222108   
N63      N      0.001330000000     0.751110000000     0.157140000000    -0.151768   
N64      N      0.002110000000     0.750620000000     0.092930000000    -0.2245     
N65      N      0.093070000000     0.000270000000     0.249290000000    -0.154617   
N66      N      0.157200000000     0.999510000000     0.248950000000    -0.22288    
N67      N      0.406950000000     0.500870000000     0.251290000000    -0.153157   
N68      N      0.342810000000     0.500360000000     0.252060000000    -0.224847   
N69      N      0.999890000000     0.907870000000     0.250720000000    -0.151185   
N70      N      0.000110000000     0.843730000000     0.250890000000    -0.225796   
N71      N      0.500200000000     0.593980000000     0.249700000000    -0.152631   
N72      N      0.500300000000     0.658100000000     0.249350000000    -0.224679   
N73      N      0.407320000000     0.749420000000     0.003170000000    -0.152192   
N74      N      0.343130000000     0.749300000000     0.004060000000    -0.223567   
N75      N      0.157240000000     0.749380000000     0.496850000000    -0.149762   
N76      N      0.093050000000     0.749650000000     0.496970000000    -0.221085   
N77      N      0.250420000000     0.907120000000     0.000170000000    -0.15198    
N78      N      0.250640000000     0.843020000000     0.000130000000    -0.223847   
N79      N      0.249850000000     0.593060000000     0.500500000000    -0.149838   
N80      N      0.249750000000     0.657160000000     0.500750000000    -0.224338   
N81      N      0.247060000000     0.999520000000     0.843130000000    -0.148021   
N82      N      0.246340000000     0.999480000000     0.907330000000    -0.218829   
N83      N      0.253040000000     0.499450000000     0.657410000000    -0.152536   
N84      N      0.253870000000     0.499360000000     0.593220000000    -0.224713   
N85      N      0.499220000000     0.749970000000     0.842940000000    -0.150249   
N86      N      0.498840000000     0.749290000000     0.907160000000    -0.222188   
N87      N      0.001330000000     0.751110000000     0.657140000000    -0.151769   
N88      N      0.002110000000     0.750620000000     0.592930000000    -0.224485   
N89      N      0.093070000000     0.000270000000     0.749290000000    -0.154601   
N90      N      0.157200000000     0.999510000000     0.748950000000    -0.222884   
N91      N      0.406950000000     0.500870000000     0.751290000000    -0.153107   
N92      N      0.342810000000     0.500360000000     0.752060000000    -0.224845   
N93      N      0.999890000000     0.907870000000     0.750720000000    -0.151183   
N94      N      0.000110000000     0.843730000000     0.750890000000    -0.225795   
N95      N      0.500200000000     0.593980000000     0.749700000000    -0.152615   
N96      N      0.500300000000     0.658100000000     0.749350000000    -0.224641   
N97      N      0.907320000000     0.249420000000     0.503170000000    -0.151871   
N98      N      0.843130000000     0.249300000000     0.504050000000    -0.223439   
N99      N      0.657240000000     0.249380000000     0.996840000000    -0.149604   
N100     N      0.593050000000     0.249650000000     0.996970000000    -0.220969   
N101     N      0.750420000000     0.407120000000     0.500170000000    -0.152085   
N102     N      0.750650000000     0.343020000000     0.500130000000    -0.223737   
N103     N      0.749860000000     0.093070000000     0.000500000000    -0.149866   
N104     N      0.749750000000     0.157160000000     0.000750000000    -0.224402   
N105     N      0.747060000000     0.499520000000     0.343130000000    -0.149177   
N106     N      0.746340000000     0.499480000000     0.407330000000    -0.223195   
N107     N      0.753040000000     0.999450000000     0.157410000000    -0.151279   
N108     N      0.753870000000     0.999360000000     0.093210000000    -0.223374   
N109     N      0.999220000000     0.249970000000     0.342940000000    -0.14925    
N110     N      0.998840000000     0.249290000000     0.407160000000    -0.221049   
N111     N      0.501330000000     0.251110000000     0.157140000000    -0.150773   
N112     N      0.502110000000     0.250620000000     0.092930000000    -0.223613   
N113     N      0.593070000000     0.500270000000     0.249290000000    -0.152317   
N114     N      0.657200000000     0.499510000000     0.248950000000    -0.224474   
N115     N      0.906940000000     0.000870000000     0.251290000000    -0.154767   
N116     N      0.842810000000     0.000360000000     0.252060000000    -0.226031   
N117     N      0.499890000000     0.407870000000     0.250720000000    -0.152756   
N118     N      0.500110000000     0.343730000000     0.250890000000    -0.224544   
N119     N      0.000200000000     0.093980000000     0.249700000000    -0.153587   
N120     N      0.000300000000     0.158100000000     0.249350000000    -0.225645   
N121     N      0.907320000000     0.249420000000     0.003170000000    -0.151989   
N122     N      0.843130000000     0.249300000000     0.004060000000    -0.223595   
N123     N      0.657240000000     0.249380000000     0.496850000000    -0.149771   
N124     N      0.593050000000     0.249650000000     0.496970000000    -0.22112    
N125     N      0.750420000000     0.407120000000     0.000170000000    -0.152278   
N126     N      0.750650000000     0.343020000000     0.000130000000    -0.223853   
N127     N      0.749860000000     0.093070000000     0.500500000000    -0.149745   
N128     N      0.749750000000     0.157160000000     0.500750000000    -0.224306   
N129     N      0.747060000000     0.499520000000     0.843130000000    -0.149152   
N130     N      0.746340000000     0.499480000000     0.907330000000    -0.223196   
N131     N      0.753040000000     0.999450000000     0.657410000000    -0.151272   
N132     N      0.753870000000     0.999360000000     0.593220000000    -0.223323   
N133     N      0.999220000000     0.249970000000     0.842940000000    -0.149247   
N134     N      0.998840000000     0.249290000000     0.907160000000    -0.221131   
N135     N      0.501330000000     0.251110000000     0.657140000000    -0.150773   
N136     N      0.502110000000     0.250620000000     0.592930000000    -0.223597   
N137     N      0.593070000000     0.500270000000     0.749290000000    -0.152301   
N138     N      0.657200000000     0.499510000000     0.748950000000    -0.224478   
N139     N      0.906940000000     0.000870000000     0.751290000000    -0.154716   
N140     N      0.842810000000     0.000360000000     0.752060000000    -0.22603    
N141     N      0.499890000000     0.407870000000     0.750720000000    -0.152753   
N142     N      0.500110000000     0.343730000000     0.750890000000    -0.224543   
N143     N      0.000200000000     0.093980000000     0.749700000000    -0.153572   
N144     N      0.000300000000     0.158100000000     0.749350000000    -0.225606   
N145     N      0.907320000000     0.749420000000     0.503170000000    -0.151852   
N146     N      0.843130000000     0.749300000000     0.504050000000    -0.223431   
N147     N      0.657240000000     0.749380000000     0.996840000000    -0.14959    
N148     N      0.593050000000     0.749650000000     0.996970000000    -0.22095    
N149     N      0.750420000000     0.907120000000     0.500170000000    -0.151831   
N150     N      0.750650000000     0.843020000000     0.500130000000    -0.22373    
N151     N      0.749860000000     0.593060000000     0.000500000000    -0.149957   
N152     N      0.749750000000     0.657160000000     0.000750000000    -0.224429   
N153     N      0.747060000000     0.999520000000     0.343130000000    -0.148036   
N154     N      0.746340000000     0.999480000000     0.407330000000    -0.218807   
N155     N      0.753040000000     0.499450000000     0.157410000000    -0.152534   
N156     N      0.753870000000     0.499360000000     0.093210000000    -0.224748   
N157     N      0.999220000000     0.749970000000     0.342940000000    -0.149241   
N158     N      0.998840000000     0.749290000000     0.407160000000    -0.221034   
N159     N      0.501330000000     0.751110000000     0.157140000000    -0.150761   
N160     N      0.502110000000     0.750620000000     0.092930000000    -0.223643   
N161     N      0.593070000000     0.000270000000     0.249290000000    -0.15454    
N162     N      0.657200000000     0.999510000000     0.248950000000    -0.222786   
N163     N      0.906940000000     0.500870000000     0.251290000000    -0.152987   
N164     N      0.842810000000     0.500360000000     0.252060000000    -0.224835   
N165     N      0.499890000000     0.907870000000     0.250720000000    -0.152535   
N166     N      0.500110000000     0.843730000000     0.250890000000    -0.224516   
N167     N      0.000200000000     0.593980000000     0.249700000000    -0.15359    
N168     N      0.000300000000     0.658100000000     0.249350000000    -0.225639   
N169     N      0.907320000000     0.749420000000     0.003170000000    -0.15197    
N170     N      0.843130000000     0.749300000000     0.004060000000    -0.223587   
N171     N      0.657240000000     0.749380000000     0.496850000000    -0.149756   
N172     N      0.593050000000     0.749650000000     0.496970000000    -0.2211     
N173     N      0.750420000000     0.907120000000     0.000170000000    -0.152025   
N174     N      0.750650000000     0.843020000000     0.000130000000    -0.223847   
N175     N      0.749860000000     0.593060000000     0.500500000000    -0.149836   
N176     N      0.749750000000     0.657160000000     0.500750000000    -0.224332   
N177     N      0.747060000000     0.999520000000     0.843130000000    -0.148014   
N178     N      0.746340000000     0.999480000000     0.907330000000    -0.218819   
N179     N      0.753040000000     0.499450000000     0.657410000000    -0.152527   
N180     N      0.753870000000     0.499360000000     0.593220000000    -0.224701   
N181     N      0.999220000000     0.749970000000     0.842940000000    -0.149238   
N182     N      0.998840000000     0.749290000000     0.907160000000    -0.221115   
N183     N      0.501330000000     0.751110000000     0.657140000000    -0.150761   
N184     N      0.502110000000     0.750620000000     0.592930000000    -0.223627   
N185     N      0.593070000000     0.000270000000     0.749290000000    -0.154524   
N186     N      0.657200000000     0.999510000000     0.748950000000    -0.22279    
N187     N      0.906940000000     0.500870000000     0.751290000000    -0.152937   
N188     N      0.842810000000     0.500360000000     0.752060000000    -0.224833   
N189     N      0.499890000000     0.907870000000     0.750720000000    -0.152532   
N190     N      0.500110000000     0.843730000000     0.750890000000    -0.224515   
N191     N      0.000200000000     0.593980000000     0.749700000000    -0.153575   
N192     N      0.000300000000     0.658100000000     0.749350000000    -0.2256     
O1       O      0.500640000000     0.047660000000     0.224150000000    -0.384847   
O2       O      0.498880000000     0.453920000000     0.224680000000    -0.387742   
O3       O      0.452860000000     0.500130000000     0.224970000000    -0.38783    
O4       O      0.046650000000     0.001400000000     0.223890000000    -0.389259   
O5       O      0.047120000000     0.000170000000     0.275520000000    -0.383403   
O6       O      0.453400000000     0.501920000000     0.276580000000    -0.385914   
O7       O      0.000920000000     0.454190000000     0.276280000000    -0.386203   
O8       O      0.999600000000     0.047950000000     0.275790000000    -0.381359   
O9       O      0.474980000000     0.204230000000     0.254680000000    -0.392992   
O10      O      0.474990000000     0.297540000000     0.244940000000    -0.393062   
O11      O      0.475520000000     0.246040000000     0.203150000000    -0.384631   
O12      O      0.474420000000     0.255670000000     0.296450000000    -0.385014   
O13      O      0.024960000000     0.245390000000     0.296860000000    -0.376907   
O14      O      0.026040000000     0.256420000000     0.203720000000    -0.375799   
O15      O      0.025400000000     0.297490000000     0.255910000000    -0.356284   
O16      O      0.025590000000     0.204360000000     0.244690000000    -0.357841   
O17      O      0.296860000000     0.474800000000     0.246300000000    -0.394179   
O18      O      0.203440000000     0.474320000000     0.254280000000    -0.358948   
O19      O      0.246400000000     0.474470000000     0.203590000000    -0.38883    
O20      O      0.253900000000     0.474560000000     0.296960000000    -0.376635   
O21      O      0.243120000000     0.024980000000     0.296770000000    -0.375218   
O22      O      0.256630000000     0.025010000000     0.203740000000    -0.385296   
O23      O      0.203390000000     0.024790000000     0.243660000000    -0.393148   
O24      O      0.296340000000     0.025280000000     0.256880000000    -0.35788    
O25      O      0.277730000000     0.003170000000     0.045840000000    -0.360682   
O26      O      0.273690000000     0.997100000000     0.452320000000    -0.389595   
O27      O      0.275360000000     0.046980000000     0.495670000000    -0.377915   
O28      O      0.276090000000     0.453360000000     0.000250000000    -0.385266   
O29      O      0.224420000000     0.453190000000     0.000190000000    -0.386785   
O30      O      0.224600000000     0.046810000000     0.505020000000    -0.374776   
O31      O      0.222470000000     0.503100000000     0.454720000000    -0.355072   
O32      O      0.226560000000     0.496830000000     0.048220000000    -0.397458   
O33      O      0.996570000000     0.224930000000     0.046970000000    -0.388973   
O34      O      0.003930000000     0.224190000000     0.453540000000    -0.358736   
O35      O      0.046930000000     0.224640000000     0.503750000000    -0.382336   
O36      O      0.453530000000     0.224420000000     0.996740000000    -0.389049   
O37      O      0.453620000000     0.275060000000     0.006470000000    -0.382846   
O38      O      0.046680000000     0.275120000000     0.493200000000    -0.346936   
O39      O      0.493780000000     0.274750000000     0.453340000000    -0.382959   
O40      O      0.506580000000     0.275510000000     0.046330000000    -0.357533   
O41      O      0.250130000000     0.203380000000     0.026460000000    -0.36198    
O42      O      0.245700000000     0.297000000000     0.025660000000    -0.386472   
O43      O      0.202290000000     0.247160000000     0.024130000000    -0.380187   
O44      O      0.295810000000     0.253140000000     0.027980000000    -0.35655    
O45      O      0.298100000000     0.246730000000     0.476810000000    -0.38966    
O46      O      0.204580000000     0.253120000000     0.472910000000    -0.37925    
O47      O      0.254990000000     0.296760000000     0.474880000000    -0.359544   
O48      O      0.249960000000     0.203180000000     0.474790000000    -0.392865   
O49      O      0.500640000000     0.047660000000     0.724150000000    -0.384841   
O50      O      0.498880000000     0.453920000000     0.724680000000    -0.387736   
O51      O      0.452860000000     0.500130000000     0.724970000000    -0.387768   
O52      O      0.046650000000     0.001400000000     0.723890000000    -0.389252   
O53      O      0.047120000000     0.000170000000     0.775520000000    -0.383383   
O54      O      0.453400000000     0.501920000000     0.776590000000    -0.385744   
O55      O      0.000920000000     0.454190000000     0.776280000000    -0.386189   
O56      O      0.999600000000     0.047950000000     0.775790000000    -0.381346   
O57      O      0.474980000000     0.204230000000     0.754680000000    -0.392975   
O58      O      0.474990000000     0.297540000000     0.744940000000    -0.393059   
O59      O      0.475520000000     0.246040000000     0.703150000000    -0.384626   
O60      O      0.474420000000     0.255670000000     0.796450000000    -0.385011   
O61      O      0.024960000000     0.245390000000     0.796860000000    -0.376907   
O62      O      0.026040000000     0.256420000000     0.703720000000    -0.375787   
O63      O      0.025400000000     0.297490000000     0.755910000000    -0.356277   
O64      O      0.025590000000     0.204360000000     0.744680000000    -0.357776   
O65      O      0.296860000000     0.474800000000     0.746300000000    -0.394196   
O66      O      0.203440000000     0.474320000000     0.754280000000    -0.358948   
O67      O      0.246400000000     0.474470000000     0.703590000000    -0.388832   
O68      O      0.253900000000     0.474560000000     0.796960000000    -0.376624   
O69      O      0.243120000000     0.024980000000     0.796770000000    -0.375205   
O70      O      0.256630000000     0.025010000000     0.703740000000    -0.385301   
O71      O      0.203390000000     0.024790000000     0.743660000000    -0.393144   
O72      O      0.296340000000     0.025280000000     0.756880000000    -0.357855   
O73      O      0.277730000000     0.003170000000     0.545840000000    -0.360388   
O74      O      0.273690000000     0.997100000000     0.952320000000    -0.389656   
O75      O      0.275360000000     0.046980000000     0.995670000000    -0.377608   
O76      O      0.276090000000     0.453360000000     0.500250000000    -0.384934   
O77      O      0.224420000000     0.453190000000     0.500190000000    -0.386767   
O78      O      0.224600000000     0.046810000000     0.005020000000    -0.374691   
O79      O      0.222470000000     0.503100000000     0.954720000000    -0.354802   
O80      O      0.226560000000     0.496830000000     0.548220000000    -0.397463   
O81      O      0.996570000000     0.224930000000     0.546970000000    -0.388904   
O82      O      0.003930000000     0.224190000000     0.953540000000    -0.358385   
O83      O      0.046930000000     0.224640000000     0.003750000000    -0.382615   
O84      O      0.453530000000     0.224420000000     0.496740000000    -0.389677   
O85      O      0.453620000000     0.275060000000     0.506470000000    -0.382656   
O86      O      0.046680000000     0.275120000000     0.993200000000    -0.347032   
O87      O      0.493780000000     0.274750000000     0.953340000000    -0.382989   
O88      O      0.506580000000     0.275510000000     0.546330000000    -0.357233   
O89      O      0.250130000000     0.203380000000     0.526460000000    -0.362061   
O90      O      0.245700000000     0.297000000000     0.525660000000    -0.386544   
O91      O      0.202290000000     0.247160000000     0.524130000000    -0.379873   
O92      O      0.295810000000     0.253140000000     0.527980000000    -0.356627   
O93      O      0.298100000000     0.246730000000     0.976810000000    -0.389351   
O94      O      0.204580000000     0.253120000000     0.972910000000    -0.37931    
O95      O      0.254990000000     0.296760000000     0.974880000000    -0.35922    
O96      O      0.249960000000     0.203180000000     0.974790000000    -0.392542   
O97      O      0.500640000000     0.547660000000     0.224150000000    -0.385183   
O98      O      0.498880000000     0.953920000000     0.224680000000    -0.385194   
O99      O      0.452860000000     0.000130000000     0.224970000000    -0.388619   
O100     O      0.046650000000     0.501400000000     0.223890000000    -0.388841   
O101     O      0.047120000000     0.500170000000     0.275520000000    -0.382574   
O102     O      0.453400000000     0.001920000000     0.276580000000    -0.386292   
O103     O      0.000920000000     0.954190000000     0.276280000000    -0.383571   
O104     O      0.999600000000     0.547950000000     0.275790000000    -0.381607   
O105     O      0.474980000000     0.704230000000     0.254680000000    -0.392979   
O106     O      0.474990000000     0.797540000000     0.244940000000    -0.393017   
O107     O      0.475520000000     0.746040000000     0.203150000000    -0.38461    
O108     O      0.474420000000     0.755670000000     0.296450000000    -0.384989   
O109     O      0.024960000000     0.745390000000     0.296860000000    -0.376886   
O110     O      0.026040000000     0.756420000000     0.203720000000    -0.375775   
O111     O      0.025400000000     0.797490000000     0.255910000000    -0.356245   
O112     O      0.025590000000     0.704360000000     0.244690000000    -0.357828   
O113     O      0.296860000000     0.974800000000     0.246300000000    -0.391325   
O114     O      0.203440000000     0.974320000000     0.254280000000    -0.359724   
O115     O      0.246400000000     0.974470000000     0.203590000000    -0.38965    
O116     O      0.253900000000     0.974560000000     0.296960000000    -0.377517   
O117     O      0.243120000000     0.524990000000     0.296770000000    -0.372084   
O118     O      0.256630000000     0.525010000000     0.203740000000    -0.382312   
O119     O      0.203390000000     0.524790000000     0.243660000000    -0.390126   
O120     O      0.296340000000     0.525280000000     0.256880000000    -0.358486   
O121     O      0.277730000000     0.503170000000     0.045840000000    -0.358056   
O122     O      0.273690000000     0.497100000000     0.452320000000    -0.395865   
O123     O      0.275360000000     0.546980000000     0.495670000000    -0.378339   
O124     O      0.276090000000     0.953360000000     0.000250000000    -0.382773   
O125     O      0.224420000000     0.953190000000     0.000190000000    -0.384246   
O126     O      0.224600000000     0.546810000000     0.505020000000    -0.375129   
O127     O      0.222470000000     0.003100000000     0.454720000000    -0.353469   
O128     O      0.226560000000     0.996830000000     0.048220000000    -0.395481   
O129     O      0.996570000000     0.724930000000     0.046970000000    -0.388988   
O130     O      0.003930000000     0.724190000000     0.453540000000    -0.358693   
O131     O      0.046930000000     0.724640000000     0.503750000000    -0.382184   
O132     O      0.453530000000     0.724420000000     0.996740000000    -0.389098   
O133     O      0.453620000000     0.775060000000     0.006470000000    -0.382679   
O134     O      0.046680000000     0.775120000000     0.493200000000    -0.346967   
O135     O      0.493780000000     0.774750000000     0.453340000000    -0.382888   
O136     O      0.506580000000     0.775500000000     0.046330000000    -0.357629   
O137     O      0.250130000000     0.703380000000     0.026460000000    -0.362042   
O138     O      0.245700000000     0.797010000000     0.025660000000    -0.386318   
O139     O      0.202290000000     0.747150000000     0.024130000000    -0.380136   
O140     O      0.295810000000     0.753140000000     0.027980000000    -0.35651    
O141     O      0.298100000000     0.746730000000     0.476810000000    -0.389641   
O142     O      0.204580000000     0.753120000000     0.472910000000    -0.379221   
O143     O      0.254990000000     0.796760000000     0.474880000000    -0.359525   
O144     O      0.249960000000     0.703180000000     0.474790000000    -0.39286    
O145     O      0.500640000000     0.547660000000     0.724150000000    -0.385178   
O146     O      0.498880000000     0.953920000000     0.724680000000    -0.385187   
O147     O      0.452860000000     0.000130000000     0.724970000000    -0.388558   
O148     O      0.046650000000     0.501400000000     0.723890000000    -0.388833   
O149     O      0.047120000000     0.500170000000     0.775520000000    -0.382555   
O150     O      0.453400000000     0.001920000000     0.776590000000    -0.386121   
O151     O      0.000920000000     0.954190000000     0.776280000000    -0.383559   
O152     O      0.999600000000     0.547950000000     0.775790000000    -0.381595   
O153     O      0.474980000000     0.704230000000     0.754680000000    -0.392962   
O154     O      0.474990000000     0.797540000000     0.744940000000    -0.393014   
O155     O      0.475520000000     0.746040000000     0.703150000000    -0.384606   
O156     O      0.474420000000     0.755670000000     0.796450000000    -0.384986   
O157     O      0.024960000000     0.745390000000     0.796860000000    -0.376886   
O158     O      0.026040000000     0.756420000000     0.703720000000    -0.375763   
O159     O      0.025400000000     0.797490000000     0.755910000000    -0.356238   
O160     O      0.025590000000     0.704360000000     0.744680000000    -0.357763   
O161     O      0.296860000000     0.974800000000     0.746300000000    -0.391342   
O162     O      0.203440000000     0.974320000000     0.754280000000    -0.359724   
O163     O      0.246400000000     0.974470000000     0.703590000000    -0.389651   
O164     O      0.253900000000     0.974560000000     0.796960000000    -0.377505   
O165     O      0.243120000000     0.524990000000     0.796770000000    -0.372074   
O166     O      0.256630000000     0.525010000000     0.703740000000    -0.382316   
O167     O      0.203390000000     0.524790000000     0.743660000000    -0.390123   
O168     O      0.296340000000     0.525280000000     0.756880000000    -0.358461   
O169     O      0.277730000000     0.503170000000     0.545840000000    -0.357756   
O170     O      0.273690000000     0.497100000000     0.952320000000    -0.395906   
O171     O      0.275360000000     0.546980000000     0.995670000000    -0.37803    
O172     O      0.276090000000     0.953360000000     0.500250000000    -0.382433   
O173     O      0.224420000000     0.953190000000     0.500190000000    -0.384219   
O174     O      0.224600000000     0.546810000000     0.005020000000    -0.375043   
O175     O      0.222470000000     0.003100000000     0.954720000000    -0.353204   
O176     O      0.226560000000     0.996830000000     0.548220000000    -0.39548    
O177     O      0.996570000000     0.724930000000     0.546970000000    -0.388919   
O178     O      0.003930000000     0.724190000000     0.953540000000    -0.358342   
O179     O      0.046930000000     0.724640000000     0.003750000000    -0.382463   
O180     O      0.453530000000     0.724420000000     0.496740000000    -0.389726   
O181     O      0.453620000000     0.775060000000     0.506470000000    -0.38249    
O182     O      0.046680000000     0.775120000000     0.993200000000    -0.347064   
O183     O      0.493780000000     0.774750000000     0.953340000000    -0.382917   
O184     O      0.506580000000     0.775500000000     0.546330000000    -0.35733    
O185     O      0.250130000000     0.703380000000     0.526460000000    -0.362123   
O186     O      0.245700000000     0.797010000000     0.525660000000    -0.386391   
O187     O      0.202290000000     0.747150000000     0.524130000000    -0.379823   
O188     O      0.295810000000     0.753140000000     0.527980000000    -0.356587   
O189     O      0.298100000000     0.746730000000     0.976810000000    -0.389332   
O190     O      0.204580000000     0.753120000000     0.972910000000    -0.379281   
O191     O      0.254990000000     0.796760000000     0.974880000000    -0.359202   
O192     O      0.249960000000     0.703180000000     0.974790000000    -0.392537   
O193     O      0.000630000000     0.047660000000     0.224150000000    -0.386368   
O194     O      0.998880000000     0.453920000000     0.224680000000    -0.388384   
O195     O      0.952860000000     0.500130000000     0.224970000000    -0.388074   
O196     O      0.546650000000     0.001400000000     0.223890000000    -0.38728    
O197     O      0.547120000000     0.000170000000     0.275520000000    -0.383787   
O198     O      0.953400000000     0.501920000000     0.276580000000    -0.384      
O199     O      0.500910000000     0.454190000000     0.276280000000    -0.384098   
O200     O      0.499600000000     0.047950000000     0.275790000000    -0.385812   
O201     O      0.974980000000     0.204230000000     0.254680000000    -0.390643   
O202     O      0.974990000000     0.297540000000     0.244940000000    -0.39067    
O203     O      0.975530000000     0.246040000000     0.203150000000    -0.382382   
O204     O      0.974420000000     0.255670000000     0.296450000000    -0.385485   
O205     O      0.524960000000     0.245390000000     0.296860000000    -0.374662   
O206     O      0.526040000000     0.256420000000     0.203720000000    -0.37636    
O207     O      0.525400000000     0.297490000000     0.255910000000    -0.356826   
O208     O      0.525590000000     0.204360000000     0.244690000000    -0.35849    
O209     O      0.796860000000     0.474800000000     0.246300000000    -0.394152   
O210     O      0.703440000000     0.474320000000     0.254280000000    -0.359002   
O211     O      0.746400000000     0.474470000000     0.203590000000    -0.388811   
O212     O      0.753900000000     0.474560000000     0.296960000000    -0.376617   
O213     O      0.743120000000     0.024980000000     0.296770000000    -0.375202   
O214     O      0.756630000000     0.025010000000     0.203740000000    -0.385275   
O215     O      0.703390000000     0.024790000000     0.243660000000    -0.393208   
O216     O      0.796340000000     0.025280000000     0.256880000000    -0.357855   
O217     O      0.777730000000     0.003170000000     0.045840000000    -0.360627   
O218     O      0.773690000000     0.997100000000     0.452320000000    -0.38955    
O219     O      0.775360000000     0.046980000000     0.495670000000    -0.37796    
O220     O      0.776090000000     0.453360000000     0.000250000000    -0.385271   
O221     O      0.724430000000     0.453190000000     0.000190000000    -0.386906   
O222     O      0.724600000000     0.046810000000     0.505020000000    -0.374648   
O223     O      0.722470000000     0.503100000000     0.454720000000    -0.355033   
O224     O      0.726560000000     0.496830000000     0.048220000000    -0.397419   
O225     O      0.496570000000     0.224930000000     0.046970000000    -0.393329   
O226     O      0.503930000000     0.224190000000     0.453540000000    -0.356661   
O227     O      0.546930000000     0.224640000000     0.503750000000    -0.382642   
O228     O      0.953530000000     0.224420000000     0.996740000000    -0.387117   
O229     O      0.953620000000     0.275060000000     0.006470000000    -0.380849   
O230     O      0.546680000000     0.275120000000     0.493200000000    -0.34716    
O231     O      0.993780000000     0.274750000000     0.453340000000    -0.381477   
O232     O      0.006580000000     0.275510000000     0.046330000000    -0.356746   
O233     O      0.750130000000     0.203380000000     0.026460000000    -0.361974   
O234     O      0.745700000000     0.297000000000     0.025660000000    -0.386477   
O235     O      0.702290000000     0.247160000000     0.024130000000    -0.380191   
O236     O      0.795800000000     0.253140000000     0.027980000000    -0.356562   
O237     O      0.798100000000     0.246730000000     0.476810000000    -0.389619   
O238     O      0.704580000000     0.253120000000     0.472910000000    -0.37923    
O239     O      0.754980000000     0.296760000000     0.474880000000    -0.359582   
O240     O      0.749960000000     0.203180000000     0.474790000000    -0.392853   
O241     O      0.000630000000     0.047660000000     0.724150000000    -0.386364   
O242     O      0.998880000000     0.453920000000     0.724680000000    -0.388378   
O243     O      0.952860000000     0.500130000000     0.724970000000    -0.388012   
O244     O      0.546650000000     0.001400000000     0.723890000000    -0.387272   
O245     O      0.547120000000     0.000170000000     0.775520000000    -0.383767   
O246     O      0.953400000000     0.501920000000     0.776590000000    -0.383831   
O247     O      0.500910000000     0.454190000000     0.776280000000    -0.384085   
O248     O      0.499600000000     0.047950000000     0.775790000000    -0.385797   
O249     O      0.974980000000     0.204230000000     0.754680000000    -0.390626   
O250     O      0.974990000000     0.297540000000     0.744940000000    -0.390667   
O251     O      0.975530000000     0.246040000000     0.703150000000    -0.382376   
O252     O      0.974420000000     0.255670000000     0.796450000000    -0.385482   
O253     O      0.524960000000     0.245390000000     0.796860000000    -0.374664   
O254     O      0.526040000000     0.256420000000     0.703720000000    -0.376348   
O255     O      0.525400000000     0.297490000000     0.755910000000    -0.356819   
O256     O      0.525590000000     0.204360000000     0.744680000000    -0.358425   
O257     O      0.796860000000     0.474800000000     0.746300000000    -0.394169   
O258     O      0.703440000000     0.474320000000     0.754280000000    -0.359002   
O259     O      0.746400000000     0.474470000000     0.703590000000    -0.388813   
O260     O      0.753900000000     0.474560000000     0.796960000000    -0.376605   
O261     O      0.743120000000     0.024980000000     0.796770000000    -0.375189   
O262     O      0.756630000000     0.025010000000     0.703740000000    -0.38528    
O263     O      0.703390000000     0.024790000000     0.743660000000    -0.393204   
O264     O      0.796340000000     0.025280000000     0.756880000000    -0.35783    
O265     O      0.777730000000     0.003170000000     0.545840000000    -0.360333   
O266     O      0.773690000000     0.997100000000     0.952320000000    -0.389611   
O267     O      0.775360000000     0.046980000000     0.995670000000    -0.377653   
O268     O      0.776090000000     0.453360000000     0.500250000000    -0.384939   
O269     O      0.724430000000     0.453190000000     0.500190000000    -0.386887   
O270     O      0.724600000000     0.046810000000     0.005020000000    -0.374564   
O271     O      0.722470000000     0.503100000000     0.954720000000    -0.354764   
O272     O      0.726560000000     0.496830000000     0.548220000000    -0.397424   
O273     O      0.496570000000     0.224930000000     0.546970000000    -0.393272   
O274     O      0.503930000000     0.224190000000     0.953540000000    -0.356314   
O275     O      0.546930000000     0.224640000000     0.003750000000    -0.382921   
O276     O      0.953530000000     0.224420000000     0.496740000000    -0.387737   
O277     O      0.953620000000     0.275060000000     0.506470000000    -0.380652   
O278     O      0.546680000000     0.275120000000     0.993200000000    -0.347255   
O279     O      0.993780000000     0.274750000000     0.953340000000    -0.381512   
O280     O      0.006580000000     0.275510000000     0.546330000000    -0.356444   
O281     O      0.750130000000     0.203380000000     0.526460000000    -0.362055   
O282     O      0.745700000000     0.297000000000     0.525660000000    -0.386549   
O283     O      0.702290000000     0.247160000000     0.524130000000    -0.379877   
O284     O      0.795800000000     0.253140000000     0.527980000000    -0.356639   
O285     O      0.798100000000     0.246730000000     0.976810000000    -0.38931    
O286     O      0.704580000000     0.253120000000     0.972910000000    -0.379289   
O287     O      0.754980000000     0.296760000000     0.974880000000    -0.359258   
O288     O      0.749960000000     0.203180000000     0.974790000000    -0.39253    
O289     O      0.000630000000     0.547660000000     0.224150000000    -0.386706   
O290     O      0.998880000000     0.953920000000     0.224680000000    -0.385844   
O291     O      0.952860000000     0.000130000000     0.224970000000    -0.388861   
O292     O      0.546650000000     0.501400000000     0.223890000000    -0.386858   
O293     O      0.547120000000     0.500170000000     0.275520000000    -0.382958   
O294     O      0.953400000000     0.001920000000     0.276580000000    -0.38438    
O295     O      0.500910000000     0.954190000000     0.276280000000    -0.381465   
O296     O      0.499600000000     0.547950000000     0.275790000000    -0.386066   
O297     O      0.974980000000     0.704230000000     0.254680000000    -0.390629   
O298     O      0.974990000000     0.797540000000     0.244940000000    -0.390628   
O299     O      0.975530000000     0.746040000000     0.203150000000    -0.382363   
O300     O      0.974420000000     0.755670000000     0.296450000000    -0.38546    
O301     O      0.524960000000     0.745390000000     0.296860000000    -0.374642   
O302     O      0.526040000000     0.756420000000     0.203720000000    -0.376336   
O303     O      0.525400000000     0.797490000000     0.255910000000    -0.356786   
O304     O      0.525590000000     0.704360000000     0.244690000000    -0.358477   
O305     O      0.796860000000     0.974800000000     0.246300000000    -0.391302   
O306     O      0.703440000000     0.974320000000     0.254280000000    -0.35978    
O307     O      0.746400000000     0.974470000000     0.203590000000    -0.38963    
O308     O      0.753900000000     0.974560000000     0.296960000000    -0.377498   
O309     O      0.743120000000     0.524990000000     0.296770000000    -0.37207    
O310     O      0.756630000000     0.525010000000     0.203740000000    -0.382293   
O311     O      0.703390000000     0.524790000000     0.243660000000    -0.390184   
O312     O      0.796340000000     0.525280000000     0.256880000000    -0.358461   
O313     O      0.777730000000     0.503170000000     0.045840000000    -0.358003   
O314     O      0.773690000000     0.497100000000     0.452320000000    -0.395814   
O315     O      0.775360000000     0.546980000000     0.495670000000    -0.378383   
O316     O      0.776090000000     0.953360000000     0.000250000000    -0.38278    
O317     O      0.724430000000     0.953190000000     0.000190000000    -0.384366   
O318     O      0.724600000000     0.546810000000     0.505020000000    -0.375001   
O319     O      0.722470000000     0.003100000000     0.454720000000    -0.353432   
O320     O      0.726560000000     0.996830000000     0.048220000000    -0.395442   
O321     O      0.496570000000     0.724930000000     0.046970000000    -0.393343   
O322     O      0.503930000000     0.724190000000     0.453540000000    -0.356619   
O323     O      0.546930000000     0.724640000000     0.503750000000    -0.382491   
O324     O      0.953530000000     0.724420000000     0.996740000000    -0.387166   
O325     O      0.953620000000     0.775060000000     0.006470000000    -0.380684   
O326     O      0.546680000000     0.775120000000     0.493200000000    -0.347191   
O327     O      0.993780000000     0.774750000000     0.453340000000    -0.381408   
O328     O      0.006580000000     0.775500000000     0.046330000000    -0.356842   
O329     O      0.750130000000     0.703380000000     0.026460000000    -0.362036   
O330     O      0.745700000000     0.797010000000     0.025660000000    -0.386323   
O331     O      0.702290000000     0.747150000000     0.024130000000    -0.38014    
O332     O      0.795800000000     0.753140000000     0.027980000000    -0.356522   
O333     O      0.798100000000     0.746730000000     0.476810000000    -0.3896     
O334     O      0.704580000000     0.753120000000     0.472910000000    -0.379201   
O335     O      0.754980000000     0.796760000000     0.474880000000    -0.359563   
O336     O      0.749960000000     0.703180000000     0.474790000000    -0.392849   
O337     O      0.000630000000     0.547660000000     0.724150000000    -0.386702   
O338     O      0.998880000000     0.953920000000     0.724680000000    -0.385837   
O339     O      0.952860000000     0.000130000000     0.724970000000    -0.388799   
O340     O      0.546650000000     0.501400000000     0.723890000000    -0.386849   
O341     O      0.547120000000     0.500170000000     0.775520000000    -0.382939   
O342     O      0.953400000000     0.001920000000     0.776590000000    -0.384211   
O343     O      0.500910000000     0.954190000000     0.776280000000    -0.381453   
O344     O      0.499600000000     0.547950000000     0.775790000000    -0.386051   
O345     O      0.974980000000     0.704230000000     0.754680000000    -0.390613   
O346     O      0.974990000000     0.797540000000     0.744940000000    -0.390624   
O347     O      0.975530000000     0.746040000000     0.703150000000    -0.382356   
O348     O      0.974420000000     0.755670000000     0.796450000000    -0.385457   
O349     O      0.524960000000     0.745390000000     0.796860000000    -0.374644   
O350     O      0.526040000000     0.756420000000     0.703720000000    -0.376324   
O351     O      0.525400000000     0.797490000000     0.755910000000    -0.356779   
O352     O      0.525590000000     0.704360000000     0.744680000000    -0.358412   
O353     O      0.796860000000     0.974800000000     0.746300000000    -0.391319   
O354     O      0.703440000000     0.974320000000     0.754280000000    -0.359779   
O355     O      0.746400000000     0.974470000000     0.703590000000    -0.389632   
O356     O      0.753900000000     0.974560000000     0.796960000000    -0.377486   
O357     O      0.743120000000     0.524990000000     0.796770000000    -0.372059   
O358     O      0.756630000000     0.525010000000     0.703740000000    -0.382296   
O359     O      0.703390000000     0.524790000000     0.743660000000    -0.390181   
O360     O      0.796340000000     0.525280000000     0.756880000000    -0.358436   
O361     O      0.777730000000     0.503170000000     0.545840000000    -0.357703   
O362     O      0.773690000000     0.497100000000     0.952320000000    -0.395856   
O363     O      0.775360000000     0.546980000000     0.995670000000    -0.378075   
O364     O      0.776090000000     0.953360000000     0.500250000000    -0.38244    
O365     O      0.724430000000     0.953190000000     0.500190000000    -0.384339   
O366     O      0.724600000000     0.546810000000     0.005020000000    -0.374915   
O367     O      0.722470000000     0.003100000000     0.954720000000    -0.353167   
O368     O      0.726560000000     0.996830000000     0.548220000000    -0.395441   
O369     O      0.496570000000     0.724930000000     0.546970000000    -0.393285   
O370     O      0.503930000000     0.724190000000     0.953540000000    -0.356272   
O371     O      0.546930000000     0.724640000000     0.003750000000    -0.38277    
O372     O      0.953530000000     0.724420000000     0.496740000000    -0.387785   
O373     O      0.953620000000     0.775060000000     0.506470000000    -0.380488   
O374     O      0.546680000000     0.775120000000     0.993200000000    -0.347287   
O375     O      0.993780000000     0.774750000000     0.953340000000    -0.381443   
O376     O      0.006580000000     0.775500000000     0.546330000000    -0.356541   
O377     O      0.750130000000     0.703380000000     0.526460000000    -0.362117   
O378     O      0.745700000000     0.797010000000     0.525660000000    -0.386396   
O379     O      0.702290000000     0.747150000000     0.524130000000    -0.379827   
O380     O      0.795800000000     0.753140000000     0.527980000000    -0.356599   
O381     O      0.798100000000     0.746730000000     0.976810000000    -0.389292   
O382     O      0.704580000000     0.753120000000     0.972910000000    -0.37926    
O383     O      0.754980000000     0.796760000000     0.974880000000    -0.35924    
O384     O      0.749960000000     0.703180000000     0.974790000000    -0.392526   


