data_structure

_audit_creation_method RASPA-1.0
_audit_creation_date 2023-5-23
_audit_author_name 'Poobodin Mano'

_cell_length_a    42.4452
_cell_length_b    42.6901
_cell_length_c    37.8289
_cell_angle_alpha 90.0043
_cell_angle_beta  90.0001
_cell_angle_gamma 89.9978
_cell_volume      68545.6

_symmetry_cell_setting          triclinic
_symmetry_space_group_name_Hall 'P 1'
_symmetry_space_group_name_H-M  'P 1'
_symmetry_Int_Tables_number     1

_symmetry_equiv_pos_as_xyz 'x,y,z'

loop_
_atom_site_label
_atom_site_type_symbol
_atom_site_fract_x
_atom_site_fract_y
_atom_site_fract_z
_atom_site_charge
C1       C      0.492450000000     0.325230000000     0.540510000000     0.470731   
C2       C      0.991340000000     0.206510000000     0.033120000000     0.470271   
C3       C      0.051850000000     0.265350000000     0.037080000000     0.472793   
C4       C      0.432270000000     0.266100000000     0.536110000000     0.473282   
C5       C      0.493500000000     0.326310000000     0.283250000000     0.472024   
C6       C      0.988710000000     0.207600000000     0.290570000000     0.472348   
C7       C      0.051410000000     0.265160000000     0.286510000000     0.476875   
C8       C      0.431780000000     0.268800000000     0.286640000000     0.476192   
C9       C      0.241770000000     0.324270000000     0.036570000000     0.478803   
C10      C      0.242170000000     0.205910000000     0.036540000000     0.47643    
C11      C      0.301820000000     0.265410000000     0.036480000000     0.473485   
C12      C      0.182230000000     0.264930000000     0.536700000000     0.474781   
C13      C      0.240790000000     0.325870000000     0.286660000000     0.478963   
C14      C      0.242530000000     0.207750000000     0.286410000000     0.483437   
C15      C      0.301450000000     0.268020000000     0.287000000000     0.478268   
C16      C      0.181780000000     0.265790000000     0.286180000000     0.47752    
C17      C      0.491650000000     0.453780000000     0.548740000000     0.403623   
C18      C      0.486340000000     0.077130000000     0.028000000000     0.400835   
C19      C      0.516900000000     0.028820000000     0.098050000000     0.414518   
C20      C      0.461030000000     0.501650000000     0.478170000000     0.414247   
C21      C      0.495190000000     0.455550000000     0.278040000000     0.402381   
C22      C      0.482880000000     0.078610000000     0.297890000000     0.402419   
C23      C      0.458850000000     0.002140000000     0.346250000000     0.409294   
C24      C      0.518730000000     0.532110000000     0.229750000000     0.415855   
C25      C      0.241720000000     0.452540000000     0.536410000000     0.405087   
C26      C      0.242020000000     0.076650000000     0.036480000000     0.403139   
C27      C      0.272950000000     0.012560000000     0.096350000000     0.411181   
C28      C      0.210740000000     0.512830000000     0.476520000000     0.411866   
C29      C      0.242350000000     0.078970000000     0.286370000000     0.4078     
C30      C      0.241390000000     0.454700000000     0.286490000000     0.405687   
C31      C      0.276510000000     0.515130000000     0.228750000000     0.414104   
C32      C      0.207250000000     0.015700000000     0.344110000000     0.413502   
C33      C      0.203280000000     0.981950000000     0.426860000000     0.0414831  
C34      C      0.179760000000     0.532150000000     0.429680000000     0.0329572  
C35      C      0.177900000000     0.532740000000     0.392730000000     0.031085   
C36      C      0.200140000000     0.982010000000     0.390600000000     0.0399298  
C37      C      0.280100000000     0.481500000000     0.145920000000     0.0361412  
C38      C      0.304170000000     0.031450000000     0.143230000000     0.0320338  
C39      C      0.306060000000     0.031940000000     0.180170000000     0.0301519  
C40      C      0.283240000000     0.481450000000     0.182180000000     0.0345212  
C41      C      0.925310000000     0.508850000000     0.430940000000     0.0320417  
C42      C      0.463750000000     0.968770000000     0.429470000000     0.0355382  
C43      C      0.462040000000     0.968020000000     0.393230000000     0.036813   
C44      C      0.924060000000     0.508500000000     0.393970000000     0.0315276  
C45      C      0.052600000000     0.024030000000     0.145520000000     0.032715   
C46      C      0.512680000000     0.562700000000     0.145510000000     0.0363074  
C47      C      0.514670000000     0.564860000000     0.181650000000     0.0348444  
C48      C      0.053910000000     0.025600000000     0.182440000000     0.0310091  
C49      C      0.228960000000     0.159680000000     0.259130000000     0.0358884  
C50      C      0.256480000000     0.159640000000     0.313450000000     0.0358546  
C51      C      0.257330000000     0.127030000000     0.312820000000     0.0287366  
C52      C      0.227970000000     0.127090000000     0.259750000000     0.028735   
C53      C      0.256130000000     0.406560000000     0.312850000000     0.0287276  
C54      C      0.225830000000     0.406660000000     0.260450000000     0.0285966  
C55      C      0.226600000000     0.374030000000     0.259840000000     0.0347037  
C56      C      0.254970000000     0.373960000000     0.313590000000     0.0346513  
C57      C      0.254780000000     0.157620000000     0.508710000000     0.0356099  
C58      C      0.229510000000     0.157630000000     0.064320000000     0.0356576  
C59      C      0.228530000000     0.124950000000     0.063740000000     0.0282487  
C60      C      0.255680000000     0.124930000000     0.509260000000     0.0282386  
C61      C      0.264370000000     0.372160000000     0.054780000000     0.0362072  
C62      C      0.219030000000     0.372110000000     0.518380000000     0.0362752  
C63      C      0.218040000000     0.404750000000     0.519990000000     0.0299943  
C64      C      0.265340000000     0.404800000000     0.053070000000     0.0300617  
C65      C      0.262500000000     0.247580000000     0.430080000000     0.0285534  
C66      C      0.220830000000     0.284110000000     0.430340000000     0.0288446  
C67      C      0.220920000000     0.284440000000     0.393170000000     0.0289836  
C68      C      0.262540000000     0.247880000000     0.392930000000     0.028771   
C69      C      0.221650000000     0.247220000000     0.142960000000     0.028517   
C70      C      0.262590000000     0.284560000000     0.142890000000     0.0289746  
C71      C      0.262250000000     0.285000000000     0.180060000000     0.0288579  
C72      C      0.221370000000     0.247610000000     0.180100000000     0.028811   
C73      C      0.499080000000     0.127360000000     0.322500000000     0.0290432  
C74      C      0.967090000000     0.126490000000     0.271500000000     0.0277698  
C75      C      0.970140000000     0.158950000000     0.268320000000     0.0341772  
C76      C      0.500110000000     0.160090000000     0.320850000000     0.0347924  
C77      C      0.010510000000     0.375240000000     0.306080000000     0.0355254  
C78      C      0.480280000000     0.373820000000     0.253770000000     0.0350382  
C79      C      0.480030000000     0.406620000000     0.252820000000     0.029062   
C80      C      0.012320000000     0.407810000000     0.303570000000     0.0291851  
C81      C      0.383130000000     0.270070000000     0.318020000000     0.0317255  
C82      C      0.382970000000     0.268540000000     0.255680000000     0.03234    
C83      C      0.350110000000     0.268310000000     0.255690000000     0.0317425  
C84      C      0.350240000000     0.269710000000     0.318030000000     0.0325577  
C85      C      0.100230000000     0.265570000000     0.317480000000     0.032349   
C86      C      0.100080000000     0.263780000000     0.255150000000     0.0317076  
C87      C      0.132980000000     0.264100000000     0.255140000000     0.0325144  
C88      C      0.133100000000     0.265750000000     0.317480000000     0.0317344  
C89      C      0.474620000000     0.157860000000     0.056720000000     0.0343426  
C90      C      0.003850000000     0.158580000000     0.503680000000     0.0360776  
C91      C      0.003390000000     0.125680000000     0.502810000000     0.0296721  
C92      C      0.472070000000     0.125370000000     0.054330000000     0.0283357  
C93      C      0.469040000000     0.374030000000     0.526620000000     0.0350384  
C94      C      0.014600000000     0.372330000000     0.062490000000     0.0364436  
C95      C      0.015100000000     0.405110000000     0.063610000000     0.031768   
C96      C      0.467580000000     0.406520000000     0.531110000000     0.0294143  
C97      C      0.383430000000     0.266590000000     0.505040000000     0.0318161  
C98      C      0.383570000000     0.265460000000     0.067380000000     0.0314668  
C99      C      0.350680000000     0.265000000000     0.067440000000     0.031895   
C100     C      0.350510000000     0.266620000000     0.505120000000     0.0316423  
C101     C      0.100660000000     0.263880000000     0.068120000000     0.0320144  
C102     C      0.100530000000     0.266230000000     0.505820000000     0.0315662  
C103     C      0.133410000000     0.265750000000     0.505730000000     0.0322123  
C104     C      0.133570000000     0.264160000000     0.068060000000     0.0319783  
C105     C      0.013270000000     0.251570000000     0.430270000000     0.0290214  
C106     C      0.471970000000     0.288490000000     0.430480000000     0.0291063  
C107     C      0.472010000000     0.288680000000     0.393240000000     0.0289365  
C108     C      0.013250000000     0.251700000000     0.393150000000     0.029283   
C109     C      0.472270000000     0.283150000000     0.142730000000     0.0279837  
C110     C      0.010180000000     0.242800000000     0.143350000000     0.0299006  
C111     C      0.009920000000     0.243040000000     0.180590000000     0.0296572  
C112     C      0.471980000000     0.283360000000     0.179850000000     0.0284242  
C113     C      0.492450000000     0.325230000000     0.040510000000     0.470583   
C114     C      0.991340000000     0.206510000000     0.533120000000     0.470359   
C115     C      0.051850000000     0.265350000000     0.537080000000     0.472887   
C116     C      0.432270000000     0.266100000000     0.036110000000     0.473223   
C117     C      0.493500000000     0.326310000000     0.783250000000     0.472022   
C118     C      0.988710000000     0.207600000000     0.790570000000     0.472346   
C119     C      0.051410000000     0.265160000000     0.786510000000     0.476497   
C120     C      0.431790000000     0.268800000000     0.786650000000     0.476439   
C121     C      0.241770000000     0.324270000000     0.536570000000     0.478811   
C122     C      0.242170000000     0.205910000000     0.536540000000     0.47654    
C123     C      0.301820000000     0.265410000000     0.536480000000     0.473546   
C124     C      0.182230000000     0.264930000000     0.036700000000     0.474425   
C125     C      0.240800000000     0.325870000000     0.786660000000     0.478978   
C126     C      0.242540000000     0.207750000000     0.786410000000     0.483654   
C127     C      0.301450000000     0.268020000000     0.787000000000     0.478106   
C128     C      0.181780000000     0.265790000000     0.786180000000     0.477446   
C129     C      0.491650000000     0.453780000000     0.048740000000     0.403609   
C130     C      0.486350000000     0.077130000000     0.528000000000     0.400929   
C131     C      0.516900000000     0.028820000000     0.598050000000     0.414472   
C132     C      0.461030000000     0.501650000000     0.978170000000     0.413487   
C133     C      0.495190000000     0.455550000000     0.778040000000     0.40257    
C134     C      0.482880000000     0.078610000000     0.797890000000     0.402419   
C135     C      0.458850000000     0.002140000000     0.846250000000     0.409102   
C136     C      0.518730000000     0.532110000000     0.729750000000     0.415832   
C137     C      0.241720000000     0.452550000000     0.036400000000     0.405026   
C138     C      0.242020000000     0.076650000000     0.536480000000     0.402978   
C139     C      0.272970000000     0.012560000000     0.596340000000     0.411081   
C140     C      0.210740000000     0.512830000000     0.976500000000     0.411066   
C141     C      0.242370000000     0.078970000000     0.786360000000     0.407798   
C142     C      0.241420000000     0.454700000000     0.786480000000     0.405887   
C143     C      0.276540000000     0.515130000000     0.728740000000     0.414249   
C144     C      0.207270000000     0.015690000000     0.844100000000     0.413589   
C145     C      0.203300000000     0.981940000000     0.926850000000     0.0412667  
C146     C      0.179770000000     0.532140000000     0.929660000000     0.0328679  
C147     C      0.177910000000     0.532740000000     0.892710000000     0.0310075  
C148     C      0.200160000000     0.982010000000     0.890580000000     0.0400019  
C149     C      0.280140000000     0.481500000000     0.645910000000     0.0360764  
C150     C      0.304180000000     0.031460000000     0.643220000000     0.0320188  
C151     C      0.306070000000     0.031950000000     0.680160000000     0.0301211  
C152     C      0.283280000000     0.481460000000     0.682170000000     0.0346083  
C153     C      0.925300000000     0.508850000000     0.930940000000     0.0318921  
C154     C      0.463750000000     0.968780000000     0.929470000000     0.0356163  
C155     C      0.462040000000     0.968020000000     0.893230000000     0.0366469  
C156     C      0.924060000000     0.508500000000     0.893970000000     0.0315389  
C157     C      0.052600000000     0.024030000000     0.645520000000     0.0327602  
C158     C      0.512690000000     0.562700000000     0.645510000000     0.0363742  
C159     C      0.514670000000     0.564860000000     0.681650000000     0.0348118  
C160     C      0.053920000000     0.025600000000     0.682440000000     0.0309357  
C161     C      0.228970000000     0.159680000000     0.759130000000     0.0359703  
C162     C      0.256480000000     0.159640000000     0.813450000000     0.0359144  
C163     C      0.257340000000     0.127030000000     0.812820000000     0.0286772  
C164     C      0.227980000000     0.127090000000     0.759740000000     0.028616   
C165     C      0.256150000000     0.406560000000     0.812840000000     0.0286914  
C166     C      0.225850000000     0.406660000000     0.760440000000     0.0286684  
C167     C      0.226620000000     0.374030000000     0.759830000000     0.0347283  
C168     C      0.254980000000     0.373960000000     0.813590000000     0.0345814  
C169     C      0.254780000000     0.157620000000     0.008710000000     0.0361581  
C170     C      0.229520000000     0.157630000000     0.564320000000     0.0356483  
C171     C      0.228540000000     0.124940000000     0.563740000000     0.0282772  
C172     C      0.255680000000     0.124930000000     0.009260000000     0.0288217  
C173     C      0.264370000000     0.372160000000     0.554770000000     0.0362716  
C174     C      0.219030000000     0.372110000000     0.018380000000     0.0363461  
C175     C      0.218040000000     0.404750000000     0.019980000000     0.0300235  
C176     C      0.265350000000     0.404800000000     0.553070000000     0.0299509  
C177     C      0.262500000000     0.247590000000     0.930080000000     0.0285451  
C178     C      0.220830000000     0.284110000000     0.930340000000     0.028796   
C179     C      0.220920000000     0.284450000000     0.893170000000     0.0288794  
C180     C      0.262540000000     0.247880000000     0.892930000000     0.0287046  
C181     C      0.221660000000     0.247220000000     0.642960000000     0.0286018  
C182     C      0.262590000000     0.284550000000     0.642890000000     0.0290773  
C183     C      0.262250000000     0.285000000000     0.680060000000     0.0287907  
C184     C      0.221370000000     0.247610000000     0.680100000000     0.0287705  
C185     C      0.499080000000     0.127360000000     0.822500000000     0.02899    
C186     C      0.967090000000     0.126490000000     0.771500000000     0.0276676  
C187     C      0.970150000000     0.158950000000     0.768320000000     0.0342827  
C188     C      0.500110000000     0.160090000000     0.820840000000     0.0348678  
C189     C      0.010510000000     0.375240000000     0.806090000000     0.0354289  
C190     C      0.480280000000     0.373820000000     0.753770000000     0.0350342  
C191     C      0.480030000000     0.406620000000     0.752820000000     0.0290709  
C192     C      0.012320000000     0.407820000000     0.803570000000     0.029237   
C193     C      0.383130000000     0.270070000000     0.818020000000     0.0317208  
C194     C      0.382970000000     0.268540000000     0.755680000000     0.0323095  
C195     C      0.350110000000     0.268310000000     0.755690000000     0.0318108  
C196     C      0.350240000000     0.269710000000     0.818030000000     0.0324829  
C197     C      0.100230000000     0.265570000000     0.817480000000     0.0323303  
C198     C      0.100080000000     0.263780000000     0.755150000000     0.0316751  
C199     C      0.132980000000     0.264100000000     0.755140000000     0.032531   
C200     C      0.133110000000     0.265750000000     0.817480000000     0.0317678  
C201     C      0.474620000000     0.157860000000     0.556720000000     0.0343243  
C202     C      0.003850000000     0.158580000000     0.003680000000     0.0366172  
C203     C      0.003390000000     0.125680000000     0.002810000000     0.0302686  
C204     C      0.472070000000     0.125370000000     0.554330000000     0.0283234  
C205     C      0.469040000000     0.374030000000     0.026620000000     0.0350558  
C206     C      0.014600000000     0.372330000000     0.562490000000     0.036475   
C207     C      0.015110000000     0.405110000000     0.563610000000     0.0316314  
C208     C      0.467580000000     0.406520000000     0.031110000000     0.0295402  
C209     C      0.383430000000     0.266590000000     0.005040000000     0.0323725  
C210     C      0.383570000000     0.265460000000     0.567380000000     0.0315019  
C211     C      0.350680000000     0.265000000000     0.567450000000     0.0317855  
C212     C      0.350510000000     0.266620000000     0.005120000000     0.0321779  
C213     C      0.100660000000     0.263880000000     0.568120000000     0.0320492  
C214     C      0.100530000000     0.266230000000     0.005820000000     0.0321543  
C215     C      0.133410000000     0.265750000000     0.005730000000     0.0326788  
C216     C      0.133570000000     0.264160000000     0.568060000000     0.0318939  
C217     C      0.013270000000     0.251570000000     0.930270000000     0.0289765  
C218     C      0.471970000000     0.288490000000     0.930480000000     0.0290102  
C219     C      0.472010000000     0.288680000000     0.893240000000     0.0289325  
C220     C      0.013260000000     0.251700000000     0.893160000000     0.0291751  
C221     C      0.472270000000     0.283150000000     0.642730000000     0.0279196  
C222     C      0.010180000000     0.242800000000     0.643350000000     0.0299025  
C223     C      0.009920000000     0.243040000000     0.680590000000     0.0296641  
C224     C      0.471980000000     0.283360000000     0.679850000000     0.0284582  
C225     C      0.492450000000     0.825230000000     0.540520000000     0.470784   
C226     C      0.991350000000     0.706510000000     0.033120000000     0.470055   
C227     C      0.051850000000     0.765360000000     0.037080000000     0.473099   
C228     C      0.432270000000     0.766100000000     0.536110000000     0.473293   
C229     C      0.493510000000     0.826310000000     0.283250000000     0.472103   
C230     C      0.988700000000     0.707600000000     0.290580000000     0.472236   
C231     C      0.051410000000     0.765150000000     0.286510000000     0.47683    
C232     C      0.431790000000     0.768800000000     0.286650000000     0.476129   
C233     C      0.241780000000     0.824270000000     0.036570000000     0.478807   
C234     C      0.242160000000     0.705910000000     0.036540000000     0.476415   
C235     C      0.301830000000     0.765400000000     0.036480000000     0.473381   
C236     C      0.182230000000     0.764940000000     0.536700000000     0.474612   
C237     C      0.240790000000     0.825870000000     0.286670000000     0.479062   
C238     C      0.242550000000     0.707750000000     0.286410000000     0.48353    
C239     C      0.301450000000     0.768030000000     0.287000000000     0.477995   
C240     C      0.181790000000     0.765770000000     0.286180000000     0.477591   
C241     C      0.491650000000     0.953780000000     0.548740000000     0.402914   
C242     C      0.486350000000     0.577130000000     0.028000000000     0.401342   
C243     C      0.516900000000     0.528820000000     0.098050000000     0.415476   
C244     C      0.461030000000     0.001650000000     0.478170000000     0.407819   
C245     C      0.495200000000     0.955550000000     0.278040000000     0.401774   
C246     C      0.482870000000     0.578610000000     0.297890000000     0.402553   
C247     C      0.458850000000     0.502140000000     0.346250000000     0.415989   
C248     C      0.518740000000     0.032110000000     0.229750000000     0.415208   
C249     C      0.241750000000     0.952540000000     0.536410000000     0.404511   
C250     C      0.241980000000     0.576650000000     0.036460000000     0.403411   
C251     C      0.272920000000     0.512570000000     0.096340000000     0.411728   
C252     C      0.210770000000     0.012840000000     0.476530000000     0.411006   
C253     C      0.242390000000     0.578970000000     0.286360000000     0.408261   
C254     C      0.241360000000     0.954700000000     0.286510000000     0.405077   
C255     C      0.276470000000     0.015130000000     0.228760000000     0.413442   
C256     C      0.207290000000     0.515700000000     0.344100000000     0.414322   
C257     C      0.203250000000     0.481930000000     0.426850000000     0.0360256  
C258     C      0.179760000000     0.032150000000     0.429700000000     0.0322163  
C259     C      0.177870000000     0.032750000000     0.392760000000     0.0301603  
C260     C      0.200140000000     0.482000000000     0.390590000000     0.0346947  
C261     C      0.280130000000     0.981480000000     0.145920000000     0.0414373  
C262     C      0.304160000000     0.531450000000     0.143200000000     0.03289    
C263     C      0.306090000000     0.531940000000     0.180150000000     0.0308909  
C264     C      0.283240000000     0.981440000000     0.182190000000     0.0398957  
C265     C      0.925300000000     0.008840000000     0.430930000000     0.0270008  
C266     C      0.463750000000     0.468780000000     0.429470000000     0.0344806  
C267     C      0.462030000000     0.468020000000     0.393230000000     0.0354295  
C268     C      0.924070000000     0.008490000000     0.393960000000     0.0266582  
C269     C      0.052600000000     0.524030000000     0.145530000000     0.0332262  
C270     C      0.512680000000     0.062700000000     0.145510000000     0.0361188  
C271     C      0.514680000000     0.064860000000     0.181660000000     0.0347215  
C272     C      0.053910000000     0.525600000000     0.182450000000     0.0314527  
C273     C      0.228990000000     0.659680000000     0.259130000000     0.0358709  
C274     C      0.256510000000     0.659640000000     0.313450000000     0.0358815  
C275     C      0.257370000000     0.627030000000     0.312820000000     0.0286624  
C276     C      0.228010000000     0.627090000000     0.259740000000     0.028726   
C277     C      0.256110000000     0.906570000000     0.312860000000     0.0289525  
C278     C      0.225800000000     0.906660000000     0.260460000000     0.0288742  
C279     C      0.226580000000     0.874030000000     0.259850000000     0.0349071  
C280     C      0.254950000000     0.873960000000     0.313600000000     0.0349126  
C281     C      0.254760000000     0.657620000000     0.508710000000     0.0356272  
C282     C      0.229490000000     0.657630000000     0.064310000000     0.0356509  
C283     C      0.228500000000     0.624950000000     0.063730000000     0.0282774  
C284     C      0.255650000000     0.624930000000     0.509250000000     0.0282296  
C285     C      0.264380000000     0.872160000000     0.054780000000     0.0364785  
C286     C      0.219040000000     0.872110000000     0.518380000000     0.0364331  
C287     C      0.218060000000     0.904750000000     0.519990000000     0.0302988  
C288     C      0.265360000000     0.904790000000     0.053070000000     0.0302945  
C289     C      0.262500000000     0.747590000000     0.430080000000     0.0286947  
C290     C      0.220830000000     0.784110000000     0.430340000000     0.0289272  
C291     C      0.220920000000     0.784440000000     0.393170000000     0.0288883  
C292     C      0.262550000000     0.747870000000     0.392940000000     0.0286085  
C293     C      0.221660000000     0.747220000000     0.142960000000     0.028592   
C294     C      0.262590000000     0.784560000000     0.142890000000     0.0290128  
C295     C      0.262250000000     0.785000000000     0.180060000000     0.0288382  
C296     C      0.221370000000     0.747610000000     0.180100000000     0.0287886  
C297     C      0.499070000000     0.627360000000     0.322510000000     0.0289505  
C298     C      0.967080000000     0.626490000000     0.271500000000     0.0276269  
C299     C      0.970140000000     0.658950000000     0.268320000000     0.0342146  
C300     C      0.500100000000     0.660090000000     0.320850000000     0.0348766  
C301     C      0.010520000000     0.875240000000     0.306080000000     0.0357498  
C302     C      0.480290000000     0.873820000000     0.253770000000     0.0353025  
C303     C      0.480040000000     0.906620000000     0.252820000000     0.0294284  
C304     C      0.012330000000     0.907810000000     0.303570000000     0.0295097  
C305     C      0.383130000000     0.770080000000     0.318020000000     0.0317745  
C306     C      0.382980000000     0.768550000000     0.255680000000     0.0323973  
C307     C      0.350110000000     0.768320000000     0.255690000000     0.031764   
C308     C      0.350240000000     0.769720000000     0.318040000000     0.0325061  
C309     C      0.100230000000     0.765560000000     0.317480000000     0.0324507  
C310     C      0.100090000000     0.763770000000     0.255150000000     0.0315686  
C311     C      0.132980000000     0.764090000000     0.255150000000     0.0326763  
C312     C      0.133110000000     0.765740000000     0.317480000000     0.0317606  
C313     C      0.474620000000     0.657860000000     0.056730000000     0.0342431  
C314     C      0.003850000000     0.658580000000     0.503680000000     0.0360789  
C315     C      0.003400000000     0.625680000000     0.502810000000     0.0296696  
C316     C      0.472070000000     0.625370000000     0.054330000000     0.02836    
C317     C      0.469040000000     0.874030000000     0.526620000000     0.0352002  
C318     C      0.014600000000     0.872330000000     0.062490000000     0.0367354  
C319     C      0.015100000000     0.905120000000     0.063610000000     0.03209    
C320     C      0.467580000000     0.906520000000     0.531110000000     0.0297693  
C321     C      0.383430000000     0.766580000000     0.505040000000     0.0318532  
C322     C      0.383570000000     0.765460000000     0.067380000000     0.0315254  
C323     C      0.350680000000     0.764990000000     0.067450000000     0.0318612  
C324     C      0.350520000000     0.766620000000     0.505120000000     0.031629   
C325     C      0.100660000000     0.763890000000     0.068130000000     0.0320285  
C326     C      0.100530000000     0.766230000000     0.505820000000     0.0316645  
C327     C      0.133410000000     0.765760000000     0.505730000000     0.0321201  
C328     C      0.133570000000     0.764170000000     0.068070000000     0.0319687  
C329     C      0.013270000000     0.751570000000     0.430270000000     0.0290737  
C330     C      0.471980000000     0.788490000000     0.430480000000     0.0291667  
C331     C      0.472020000000     0.788680000000     0.393240000000     0.029016   
C332     C      0.013260000000     0.751700000000     0.393160000000     0.0291731  
C333     C      0.472280000000     0.783150000000     0.142730000000     0.0280234  
C334     C      0.010180000000     0.742800000000     0.143350000000     0.0299106  
C335     C      0.009920000000     0.743040000000     0.180590000000     0.0296426  
C336     C      0.471980000000     0.783360000000     0.179850000000     0.0284366  
C337     C      0.492450000000     0.825230000000     0.040520000000     0.470654   
C338     C      0.991350000000     0.706510000000     0.533120000000     0.470642   
C339     C      0.051850000000     0.765360000000     0.537080000000     0.473207   
C340     C      0.432270000000     0.766100000000     0.036110000000     0.473193   
C341     C      0.493510000000     0.826310000000     0.783250000000     0.472082   
C342     C      0.988710000000     0.707600000000     0.790580000000     0.472294   
C343     C      0.051410000000     0.765150000000     0.786510000000     0.47682    
C344     C      0.431790000000     0.768800000000     0.786650000000     0.476102   
C345     C      0.241780000000     0.824270000000     0.536570000000     0.478937   
C346     C      0.242160000000     0.705910000000     0.536540000000     0.476611   
C347     C      0.301830000000     0.765400000000     0.536480000000     0.473468   
C348     C      0.182230000000     0.764940000000     0.036700000000     0.474349   
C349     C      0.240790000000     0.825870000000     0.786660000000     0.479079   
C350     C      0.242560000000     0.707750000000     0.786410000000     0.483603   
C351     C      0.301450000000     0.768030000000     0.787000000000     0.478064   
C352     C      0.181790000000     0.765780000000     0.786180000000     0.477478   
C353     C      0.491640000000     0.953780000000     0.048740000000     0.402972   
C354     C      0.486350000000     0.577130000000     0.528000000000     0.400962   
C355     C      0.516900000000     0.528820000000     0.598050000000     0.415431   
C356     C      0.461020000000     0.001650000000     0.978170000000     0.407089   
C357     C      0.495200000000     0.955550000000     0.778040000000     0.401764   
C358     C      0.482870000000     0.578610000000     0.797890000000     0.402747   
C359     C      0.458840000000     0.502140000000     0.846250000000     0.415903   
C360     C      0.518740000000     0.032110000000     0.729750000000     0.415199   
C361     C      0.241750000000     0.952540000000     0.036410000000     0.40444    
C362     C      0.241980000000     0.576650000000     0.536460000000     0.403428   
C363     C      0.272940000000     0.512570000000     0.596330000000     0.411916   
C364     C      0.210770000000     0.012840000000     0.976520000000     0.410257   
C365     C      0.242420000000     0.578970000000     0.786350000000     0.408256   
C366     C      0.241380000000     0.954700000000     0.786490000000     0.404973   
C367     C      0.276500000000     0.015140000000     0.728750000000     0.413393   
C368     C      0.207310000000     0.515700000000     0.844090000000     0.413957   
C369     C      0.203270000000     0.481930000000     0.926840000000     0.0360887  
C370     C      0.179770000000     0.032150000000     0.929680000000     0.0320336  
C371     C      0.177880000000     0.032740000000     0.892740000000     0.0302703  
C372     C      0.200170000000     0.482000000000     0.890580000000     0.0345911  
C373     C      0.280160000000     0.981480000000     0.645910000000     0.0413691  
C374     C      0.304180000000     0.531460000000     0.643190000000     0.032848   
C375     C      0.306100000000     0.531950000000     0.680140000000     0.0310058  
C376     C      0.283270000000     0.981450000000     0.682180000000     0.0400575  
C377     C      0.925300000000     0.008840000000     0.930930000000     0.0269695  
C378     C      0.463750000000     0.468780000000     0.929470000000     0.0343378  
C379     C      0.462030000000     0.468020000000     0.893230000000     0.035406   
C380     C      0.924060000000     0.008500000000     0.893960000000     0.0264888  
C381     C      0.052600000000     0.524030000000     0.645530000000     0.0332329  
C382     C      0.512680000000     0.062700000000     0.645510000000     0.0361734  
C383     C      0.514680000000     0.064870000000     0.681660000000     0.034638   
C384     C      0.053910000000     0.525600000000     0.682450000000     0.0314433  
C385     C      0.229000000000     0.659680000000     0.759120000000     0.0358337  
C386     C      0.256520000000     0.659640000000     0.813440000000     0.0359541  
C387     C      0.257390000000     0.627030000000     0.812810000000     0.0286028  
C388     C      0.228020000000     0.627090000000     0.759730000000     0.0287015  
C389     C      0.256120000000     0.906570000000     0.812850000000     0.0290159  
C390     C      0.225820000000     0.906660000000     0.760450000000     0.0288642  
C391     C      0.226600000000     0.874030000000     0.759840000000     0.0349405  
C392     C      0.254960000000     0.873960000000     0.813600000000     0.0348286  
C393     C      0.254760000000     0.657620000000     0.008710000000     0.0361841  
C394     C      0.229500000000     0.657630000000     0.564320000000     0.0355994  
C395     C      0.228510000000     0.624940000000     0.563730000000     0.0283132  
C396     C      0.255650000000     0.624930000000     0.009250000000     0.0287864  
C397     C      0.264390000000     0.872160000000     0.554780000000     0.0364077  
C398     C      0.219040000000     0.872110000000     0.018380000000     0.0364742  
C399     C      0.218060000000     0.904750000000     0.019990000000     0.0303648  
C400     C      0.265370000000     0.904790000000     0.553070000000     0.0302227  
C401     C      0.262500000000     0.747590000000     0.930080000000     0.0285017  
C402     C      0.220830000000     0.784110000000     0.930340000000     0.0288812  
C403     C      0.220920000000     0.784440000000     0.893170000000     0.028879   
C404     C      0.262550000000     0.747880000000     0.892930000000     0.0287052  
C405     C      0.221660000000     0.747220000000     0.642960000000     0.0285526  
C406     C      0.262590000000     0.784550000000     0.642890000000     0.0291367  
C407     C      0.262250000000     0.785000000000     0.680060000000     0.0288551  
C408     C      0.221370000000     0.747610000000     0.680110000000     0.0287513  
C409     C      0.499070000000     0.627360000000     0.822500000000     0.0290177  
C410     C      0.967080000000     0.626490000000     0.771500000000     0.0276208  
C411     C      0.970140000000     0.658950000000     0.768320000000     0.0342342  
C412     C      0.500100000000     0.660090000000     0.820850000000     0.0348546  
C413     C      0.010520000000     0.875240000000     0.806090000000     0.0356605  
C414     C      0.480290000000     0.873820000000     0.753770000000     0.0353023  
C415     C      0.480040000000     0.906620000000     0.752820000000     0.0294306  
C416     C      0.012330000000     0.907810000000     0.803570000000     0.029561   
C417     C      0.383140000000     0.770080000000     0.818030000000     0.0317044  
C418     C      0.382980000000     0.768550000000     0.755680000000     0.0323967  
C419     C      0.350110000000     0.768320000000     0.755690000000     0.0317724  
C420     C      0.350250000000     0.769720000000     0.818040000000     0.0325196  
C421     C      0.100230000000     0.765560000000     0.817480000000     0.0324466  
C422     C      0.100090000000     0.763770000000     0.755150000000     0.0315637  
C423     C      0.132990000000     0.764090000000     0.755150000000     0.0327094  
C424     C      0.133110000000     0.765740000000     0.817480000000     0.0317413  
C425     C      0.474630000000     0.657860000000     0.556730000000     0.0342589  
C426     C      0.003850000000     0.658580000000     0.003680000000     0.0365847  
C427     C      0.003400000000     0.625680000000     0.002810000000     0.0302798  
C428     C      0.472080000000     0.625370000000     0.554330000000     0.0283438  
C429     C      0.469040000000     0.874030000000     0.026630000000     0.0352989  
C430     C      0.014600000000     0.872330000000     0.562490000000     0.0367328  
C431     C      0.015100000000     0.905120000000     0.563610000000     0.0320475  
C432     C      0.467580000000     0.906520000000     0.031110000000     0.0297872  
C433     C      0.383430000000     0.766580000000     0.005040000000     0.0324005  
C434     C      0.383570000000     0.765450000000     0.567380000000     0.0315152  
C435     C      0.350680000000     0.764990000000     0.567450000000     0.031847   
C436     C      0.350510000000     0.766620000000     0.005120000000     0.0322173  
C437     C      0.100660000000     0.763890000000     0.568130000000     0.0320134  
C438     C      0.100530000000     0.766240000000     0.005820000000     0.0322157  
C439     C      0.133410000000     0.765760000000     0.005730000000     0.0326732  
C440     C      0.133570000000     0.764170000000     0.568070000000     0.0319569  
C441     C      0.013270000000     0.751570000000     0.930280000000     0.0289995  
C442     C      0.471980000000     0.788490000000     0.930480000000     0.0290846  
C443     C      0.472020000000     0.788680000000     0.893240000000     0.0289949  
C444     C      0.013260000000     0.751700000000     0.893160000000     0.0291653  
C445     C      0.472280000000     0.783150000000     0.642730000000     0.0280257  
C446     C      0.010180000000     0.742800000000     0.643350000000     0.0299733  
C447     C      0.009920000000     0.743040000000     0.680590000000     0.0296219  
C448     C      0.471980000000     0.783360000000     0.679850000000     0.0284386  
C449     C      0.992450000000     0.325230000000     0.540520000000     0.470502   
C450     C      0.491350000000     0.206510000000     0.033130000000     0.470256   
C451     C      0.551850000000     0.265350000000     0.037080000000     0.473122   
C452     C      0.932270000000     0.266100000000     0.536110000000     0.47317    
C453     C      0.993500000000     0.326310000000     0.283240000000     0.471788   
C454     C      0.488700000000     0.207600000000     0.290570000000     0.472366   
C455     C      0.551410000000     0.265160000000     0.286510000000     0.477093   
C456     C      0.931780000000     0.268800000000     0.286650000000     0.476164   
C457     C      0.741770000000     0.324270000000     0.036570000000     0.47866    
C458     C      0.742170000000     0.205910000000     0.036540000000     0.476613   
C459     C      0.801820000000     0.265410000000     0.036480000000     0.473423   
C460     C      0.682230000000     0.264930000000     0.536700000000     0.474463   
C461     C      0.740800000000     0.325870000000     0.286660000000     0.47901    
C462     C      0.742530000000     0.207740000000     0.286410000000     0.483329   
C463     C      0.801450000000     0.268020000000     0.287000000000     0.478095   
C464     C      0.681780000000     0.265780000000     0.286180000000     0.477524   
C465     C      0.991650000000     0.453780000000     0.548760000000     0.402029   
C466     C      0.986330000000     0.077130000000     0.027990000000     0.399334   
C467     C      0.016880000000     0.028840000000     0.098040000000     0.416361   
C468     C      0.961030000000     0.501630000000     0.478170000000     0.414397   
C469     C      0.995190000000     0.455550000000     0.278020000000     0.401053   
C470     C      0.982880000000     0.078610000000     0.297900000000     0.400758   
C471     C      0.958870000000     0.002120000000     0.346260000000     0.409348   
C472     C      0.018710000000     0.532130000000     0.229750000000     0.41782    
C473     C      0.741720000000     0.452540000000     0.536410000000     0.405077   
C474     C      0.742020000000     0.076650000000     0.036480000000     0.403192   
C475     C      0.772950000000     0.012560000000     0.096350000000     0.411196   
C476     C      0.710740000000     0.512830000000     0.476520000000     0.411959   
C477     C      0.742350000000     0.078970000000     0.286370000000     0.407732   
C478     C      0.741390000000     0.454700000000     0.286500000000     0.405721   
C479     C      0.776510000000     0.515130000000     0.228750000000     0.414096   
C480     C      0.707250000000     0.015690000000     0.344110000000     0.41353    
C481     C      0.703280000000     0.981940000000     0.426860000000     0.0413681  
C482     C      0.679760000000     0.532150000000     0.429680000000     0.0328704  
C483     C      0.677900000000     0.532740000000     0.392730000000     0.0310975  
C484     C      0.700140000000     0.982010000000     0.390600000000     0.0399779  
C485     C      0.780100000000     0.481490000000     0.145920000000     0.0360037  
C486     C      0.804170000000     0.031440000000     0.143230000000     0.0321014  
C487     C      0.806060000000     0.031930000000     0.180170000000     0.0301111  
C488     C      0.783240000000     0.481450000000     0.182180000000     0.0346773  
C489     C      0.425310000000     0.508900000000     0.430940000000     0.0320765  
C490     C      0.963770000000     0.968740000000     0.429480000000     0.0354812  
C491     C      0.962070000000     0.967990000000     0.393240000000     0.0366892  
C492     C      0.424050000000     0.508550000000     0.393970000000     0.0315537  
C493     C      0.552610000000     0.023970000000     0.145520000000     0.0325342  
C494     C      0.012660000000     0.562740000000     0.145500000000     0.0376767  
C495     C      0.014640000000     0.564900000000     0.181640000000     0.0361201  
C496     C      0.553930000000     0.025550000000     0.182450000000     0.030928   
C497     C      0.728960000000     0.159680000000     0.259130000000     0.0358877  
C498     C      0.756480000000     0.159630000000     0.313450000000     0.03588    
C499     C      0.757330000000     0.127020000000     0.312830000000     0.0286818  
C500     C      0.727970000000     0.127090000000     0.259750000000     0.0287346  
C501     C      0.756130000000     0.406560000000     0.312850000000     0.0287103  
C502     C      0.725830000000     0.406660000000     0.260450000000     0.0286023  
C503     C      0.726600000000     0.374030000000     0.259840000000     0.0347003  
C504     C      0.754970000000     0.373960000000     0.313590000000     0.0346419  
C505     C      0.754780000000     0.157610000000     0.508710000000     0.03561    
C506     C      0.729510000000     0.157630000000     0.064320000000     0.0356655  
C507     C      0.728530000000     0.124940000000     0.063740000000     0.028269   
C508     C      0.755680000000     0.124920000000     0.509260000000     0.0282153  
C509     C      0.764370000000     0.372160000000     0.054780000000     0.0361934  
C510     C      0.719030000000     0.372100000000     0.518380000000     0.0363066  
C511     C      0.718040000000     0.404740000000     0.519990000000     0.0299581  
C512     C      0.765340000000     0.404790000000     0.053070000000     0.0300596  
C513     C      0.762500000000     0.247580000000     0.430080000000     0.0285984  
C514     C      0.720830000000     0.284110000000     0.430340000000     0.0289143  
C515     C      0.720910000000     0.284440000000     0.393170000000     0.0288804  
C516     C      0.762540000000     0.247870000000     0.392930000000     0.0286888  
C517     C      0.721650000000     0.247220000000     0.142960000000     0.0285786  
C518     C      0.762590000000     0.284550000000     0.142890000000     0.0289966  
C519     C      0.762250000000     0.285000000000     0.180060000000     0.0288451  
C520     C      0.721370000000     0.247610000000     0.180100000000     0.0287836  
C521     C      0.999080000000     0.127360000000     0.322510000000     0.0251043  
C522     C      0.467090000000     0.126490000000     0.271480000000     0.0281427  
C523     C      0.470150000000     0.158950000000     0.268300000000     0.034055   
C524     C      0.000120000000     0.160090000000     0.320850000000     0.0384845  
C525     C      0.510510000000     0.375240000000     0.306100000000     0.0343309  
C526     C      0.980270000000     0.373820000000     0.253760000000     0.0348308  
C527     C      0.980020000000     0.406620000000     0.252810000000     0.0287814  
C528     C      0.512310000000     0.407810000000     0.303590000000     0.0282531  
C529     C      0.883130000000     0.270070000000     0.318020000000     0.0317526  
C530     C      0.882970000000     0.268540000000     0.255680000000     0.0323529  
C531     C      0.850110000000     0.268310000000     0.255690000000     0.0317269  
C532     C      0.850240000000     0.269710000000     0.318040000000     0.0324607  
C533     C      0.600230000000     0.265560000000     0.317480000000     0.0323113  
C534     C      0.600080000000     0.263770000000     0.255150000000     0.0316316  
C535     C      0.632980000000     0.264100000000     0.255140000000     0.0325013  
C536     C      0.633100000000     0.265750000000     0.317480000000     0.031711   
C537     C      0.974610000000     0.157860000000     0.056710000000     0.0341443  
C538     C      0.503850000000     0.158580000000     0.503680000000     0.0349665  
C539     C      0.503400000000     0.125680000000     0.502820000000     0.0287685  
C540     C      0.972060000000     0.125370000000     0.054320000000     0.0280886  
C541     C      0.969040000000     0.374030000000     0.526640000000     0.0349216  
C542     C      0.514600000000     0.372330000000     0.062480000000     0.0353821  
C543     C      0.515110000000     0.405110000000     0.063600000000     0.0307562  
C544     C      0.967580000000     0.406520000000     0.531120000000     0.029231   
C545     C      0.883430000000     0.266590000000     0.505040000000     0.0318003  
C546     C      0.883570000000     0.265460000000     0.067380000000     0.0315062  
C547     C      0.850680000000     0.265000000000     0.067450000000     0.0317979  
C548     C      0.850510000000     0.266620000000     0.505120000000     0.0316578  
C549     C      0.600660000000     0.263880000000     0.068120000000     0.0319761  
C550     C      0.600530000000     0.266230000000     0.505820000000     0.0315686  
C551     C      0.633410000000     0.265750000000     0.505730000000     0.0321557  
C552     C      0.633560000000     0.264160000000     0.068060000000     0.031915   
C553     C      0.513260000000     0.251560000000     0.430270000000     0.028136   
C554     C      0.971970000000     0.288490000000     0.430480000000     0.0289968  
C555     C      0.972010000000     0.288680000000     0.393240000000     0.0287216  
C556     C      0.513250000000     0.251690000000     0.393150000000     0.02816    
C557     C      0.972270000000     0.283150000000     0.142730000000     0.0277369  
C558     C      0.510180000000     0.242800000000     0.143350000000     0.0287906  
C559     C      0.509920000000     0.243040000000     0.180590000000     0.028655   
C560     C      0.971980000000     0.283360000000     0.179850000000     0.028292   
C561     C      0.992450000000     0.325230000000     0.040520000000     0.470365   
C562     C      0.491350000000     0.206510000000     0.533130000000     0.470618   
C563     C      0.551850000000     0.265350000000     0.537080000000     0.473201   
C564     C      0.932270000000     0.266100000000     0.036110000000     0.473069   
C565     C      0.993500000000     0.326310000000     0.783250000000     0.471785   
C566     C      0.488710000000     0.207600000000     0.790570000000     0.472371   
C567     C      0.551410000000     0.265160000000     0.786510000000     0.476714   
C568     C      0.931790000000     0.268800000000     0.786650000000     0.476278   
C569     C      0.741770000000     0.324270000000     0.536570000000     0.478831   
C570     C      0.742170000000     0.205910000000     0.536540000000     0.476633   
C571     C      0.801830000000     0.265410000000     0.536480000000     0.473404   
C572     C      0.682230000000     0.264930000000     0.036700000000     0.474426   
C573     C      0.740800000000     0.325870000000     0.786660000000     0.479074   
C574     C      0.742540000000     0.207740000000     0.786410000000     0.483545   
C575     C      0.801450000000     0.268020000000     0.787000000000     0.478062   
C576     C      0.681780000000     0.265780000000     0.786180000000     0.477491   
C577     C      0.991640000000     0.453780000000     0.048750000000     0.402109   
C578     C      0.986340000000     0.077130000000     0.527990000000     0.399341   
C579     C      0.016880000000     0.028840000000     0.598050000000     0.416306   
C580     C      0.961030000000     0.501630000000     0.978170000000     0.41356    
C581     C      0.995190000000     0.455560000000     0.778030000000     0.401084   
C582     C      0.982880000000     0.078610000000     0.797900000000     0.40076    
C583     C      0.958870000000     0.002130000000     0.846260000000     0.409589   
C584     C      0.018700000000     0.532130000000     0.729750000000     0.417635   
C585     C      0.741720000000     0.452540000000     0.036400000000     0.405255   
C586     C      0.742020000000     0.076650000000     0.536480000000     0.403073   
C587     C      0.772960000000     0.012560000000     0.596340000000     0.41113    
C588     C      0.710740000000     0.512830000000     0.976510000000     0.41112    
C589     C      0.742370000000     0.078970000000     0.786360000000     0.407756   
C590     C      0.741420000000     0.454700000000     0.786480000000     0.405812   
C591     C      0.776540000000     0.515130000000     0.728740000000     0.414391   
C592     C      0.707270000000     0.015690000000     0.844100000000     0.4135     
C593     C      0.703300000000     0.981940000000     0.926850000000     0.0413874  
C594     C      0.679770000000     0.532140000000     0.929660000000     0.0328245  
C595     C      0.677910000000     0.532730000000     0.892720000000     0.0309923  
C596     C      0.700160000000     0.982000000000     0.890580000000     0.0399289  
C597     C      0.780130000000     0.481500000000     0.645910000000     0.0361616  
C598     C      0.804180000000     0.031450000000     0.643220000000     0.0320637  
C599     C      0.806070000000     0.031940000000     0.680160000000     0.0301487  
C600     C      0.783280000000     0.481450000000     0.682170000000     0.0345498  
C601     C      0.425300000000     0.508900000000     0.930940000000     0.0318969  
C602     C      0.963760000000     0.968740000000     0.929480000000     0.03545    
C603     C      0.962060000000     0.967990000000     0.893240000000     0.0367009  
C604     C      0.424050000000     0.508550000000     0.893970000000     0.031642   
C605     C      0.552610000000     0.023970000000     0.645530000000     0.0325703  
C606     C      0.012660000000     0.562740000000     0.645500000000     0.0376923  
C607     C      0.014640000000     0.564900000000     0.681650000000     0.0361214  
C608     C      0.553940000000     0.025550000000     0.682450000000     0.0308412  
C609     C      0.728970000000     0.159680000000     0.759130000000     0.0359875  
C610     C      0.756480000000     0.159630000000     0.813450000000     0.0359247  
C611     C      0.757350000000     0.127020000000     0.812820000000     0.0286524  
C612     C      0.727980000000     0.127090000000     0.759740000000     0.0286101  
C613     C      0.756150000000     0.406560000000     0.812840000000     0.0286622  
C614     C      0.725850000000     0.406660000000     0.760440000000     0.0286967  
C615     C      0.726620000000     0.374030000000     0.759830000000     0.0346395  
C616     C      0.754980000000     0.373960000000     0.813590000000     0.0346422  
C617     C      0.754780000000     0.157620000000     0.008710000000     0.0361368  
C618     C      0.729520000000     0.157620000000     0.564320000000     0.0356008  
C619     C      0.728540000000     0.124940000000     0.563740000000     0.0283475  
C620     C      0.755680000000     0.124920000000     0.009260000000     0.0288696  
C621     C      0.764370000000     0.372160000000     0.554770000000     0.0362812  
C622     C      0.719030000000     0.372100000000     0.018380000000     0.0363617  
C623     C      0.718040000000     0.404750000000     0.019980000000     0.0300505  
C624     C      0.765350000000     0.404790000000     0.553070000000     0.0299167  
C625     C      0.762500000000     0.247580000000     0.930080000000     0.0284985  
C626     C      0.720830000000     0.284110000000     0.930340000000     0.0287517  
C627     C      0.720920000000     0.284440000000     0.893170000000     0.0289615  
C628     C      0.762540000000     0.247870000000     0.892930000000     0.0286853  
C629     C      0.721650000000     0.247210000000     0.642960000000     0.0285421  
C630     C      0.762590000000     0.284550000000     0.642890000000     0.0289998  
C631     C      0.762250000000     0.285000000000     0.680060000000     0.0288465  
C632     C      0.721370000000     0.247600000000     0.680100000000     0.0287443  
C633     C      0.999080000000     0.127360000000     0.822510000000     0.0251407  
C634     C      0.467100000000     0.126490000000     0.771480000000     0.028187   
C635     C      0.470150000000     0.158950000000     0.768300000000     0.0340366  
C636     C      0.000120000000     0.160090000000     0.820850000000     0.0384581  
C637     C      0.510510000000     0.375240000000     0.806100000000     0.0343106  
C638     C      0.980270000000     0.373820000000     0.753760000000     0.0348354  
C639     C      0.980020000000     0.406620000000     0.752810000000     0.0287815  
C640     C      0.512310000000     0.407810000000     0.803590000000     0.0282818  
C641     C      0.883130000000     0.270070000000     0.818020000000     0.0317064  
C642     C      0.882970000000     0.268540000000     0.755680000000     0.032301   
C643     C      0.850110000000     0.268300000000     0.755690000000     0.0318094  
C644     C      0.850240000000     0.269710000000     0.818030000000     0.0324832  
C645     C      0.600230000000     0.265560000000     0.817480000000     0.0322919  
C646     C      0.600080000000     0.263780000000     0.755150000000     0.0316257  
C647     C      0.632980000000     0.264100000000     0.755140000000     0.0325079  
C648     C      0.633110000000     0.265750000000     0.817480000000     0.0317426  
C649     C      0.974610000000     0.157860000000     0.556710000000     0.034123   
C650     C      0.503850000000     0.158580000000     0.003690000000     0.0355864  
C651     C      0.503400000000     0.125680000000     0.002820000000     0.0293086  
C652     C      0.972060000000     0.125370000000     0.554320000000     0.0280701  
C653     C      0.969040000000     0.374030000000     0.026630000000     0.0349358  
C654     C      0.514600000000     0.372330000000     0.562480000000     0.0353511  
C655     C      0.515110000000     0.405110000000     0.563600000000     0.0307821  
C656     C      0.967580000000     0.406520000000     0.031120000000     0.0292935  
C657     C      0.883430000000     0.266590000000     0.005040000000     0.032367   
C658     C      0.883570000000     0.265460000000     0.567380000000     0.0314886  
C659     C      0.850680000000     0.265000000000     0.567450000000     0.0318023  
C660     C      0.850510000000     0.266620000000     0.005120000000     0.0321713  
C661     C      0.600660000000     0.263880000000     0.568120000000     0.0320735  
C662     C      0.600520000000     0.266230000000     0.005820000000     0.0321486  
C663     C      0.633410000000     0.265750000000     0.005730000000     0.0326505  
C664     C      0.633570000000     0.264160000000     0.568070000000     0.0317502  
C665     C      0.513270000000     0.251560000000     0.930270000000     0.0279571  
C666     C      0.971970000000     0.288490000000     0.930480000000     0.0289021  
C667     C      0.972010000000     0.288680000000     0.893240000000     0.028708   
C668     C      0.513250000000     0.251690000000     0.893160000000     0.0281878  
C669     C      0.972270000000     0.283150000000     0.642730000000     0.0277392  
C670     C      0.510180000000     0.242800000000     0.643350000000     0.0288072  
C671     C      0.509920000000     0.243050000000     0.680590000000     0.0287219  
C672     C      0.971980000000     0.283360000000     0.679850000000     0.0282974  
C673     C      0.992450000000     0.825230000000     0.540520000000     0.470515   
C674     C      0.491350000000     0.706510000000     0.033130000000     0.47051    
C675     C      0.551850000000     0.765360000000     0.037080000000     0.4733     
C676     C      0.932270000000     0.766100000000     0.536110000000     0.473157   
C677     C      0.993510000000     0.826310000000     0.283250000000     0.4718     
C678     C      0.488700000000     0.707600000000     0.290570000000     0.47234    
C679     C      0.551410000000     0.765150000000     0.286510000000     0.477076   
C680     C      0.931790000000     0.768800000000     0.286650000000     0.475939   
C681     C      0.741780000000     0.824270000000     0.036570000000     0.478742   
C682     C      0.742160000000     0.705910000000     0.036540000000     0.476849   
C683     C      0.801830000000     0.765400000000     0.036480000000     0.473331   
C684     C      0.682230000000     0.764940000000     0.536700000000     0.474604   
C685     C      0.740790000000     0.825870000000     0.286670000000     0.479126   
C686     C      0.742550000000     0.707740000000     0.286410000000     0.483482   
C687     C      0.801450000000     0.768030000000     0.287000000000     0.478016   
C688     C      0.681790000000     0.765770000000     0.286180000000     0.477593   
C689     C      0.991640000000     0.953780000000     0.548760000000     0.401082   
C690     C      0.986340000000     0.577130000000     0.027990000000     0.399652   
C691     C      0.016890000000     0.528840000000     0.098040000000     0.417093   
C692     C      0.961030000000     0.001630000000     0.478170000000     0.407785   
C693     C      0.995200000000     0.955550000000     0.278020000000     0.400365   
C694     C      0.982870000000     0.578610000000     0.297900000000     0.400959   
C695     C      0.958870000000     0.502130000000     0.346260000000     0.415914   
C696     C      0.018710000000     0.032130000000     0.229740000000     0.416797   
C697     C      0.741750000000     0.952540000000     0.536410000000     0.404573   
C698     C      0.741980000000     0.576650000000     0.036460000000     0.403325   
C699     C      0.772920000000     0.512560000000     0.096340000000     0.41173    
C700     C      0.710760000000     0.012830000000     0.476530000000     0.410935   
C701     C      0.742390000000     0.578970000000     0.286360000000     0.408234   
C702     C      0.741360000000     0.954700000000     0.286510000000     0.405198   
C703     C      0.776470000000     0.015130000000     0.228760000000     0.413385   
C704     C      0.707290000000     0.515700000000     0.344100000000     0.414321   
C705     C      0.703250000000     0.481920000000     0.426860000000     0.0360028  
C706     C      0.679760000000     0.032150000000     0.429700000000     0.0321555  
C707     C      0.677870000000     0.032740000000     0.392760000000     0.0302712  
C708     C      0.700140000000     0.482000000000     0.390590000000     0.0347312  
C709     C      0.780130000000     0.981480000000     0.145920000000     0.0413896  
C710     C      0.804160000000     0.531450000000     0.143200000000     0.0329376  
C711     C      0.806090000000     0.531940000000     0.180150000000     0.0308109  
C712     C      0.783240000000     0.981440000000     0.182190000000     0.0399816  
C713     C      0.425300000000     0.008900000000     0.430930000000     0.026971   
C714     C      0.963770000000     0.468740000000     0.429480000000     0.0343123  
C715     C      0.962060000000     0.467990000000     0.393230000000     0.035451   
C716     C      0.424060000000     0.008540000000     0.393960000000     0.0266468  
C717     C      0.552620000000     0.523970000000     0.145530000000     0.0329775  
C718     C      0.012660000000     0.062740000000     0.145500000000     0.0375048  
C719     C      0.014640000000     0.064900000000     0.181650000000     0.0359208  
C720     C      0.553930000000     0.525550000000     0.182450000000     0.0313893  
C721     C      0.728990000000     0.659680000000     0.259130000000     0.0358806  
C722     C      0.756510000000     0.659630000000     0.313450000000     0.0358611  
C723     C      0.757370000000     0.627020000000     0.312820000000     0.0286894  
C724     C      0.728010000000     0.627090000000     0.259740000000     0.0287344  
C725     C      0.756110000000     0.906560000000     0.312860000000     0.0289282  
C726     C      0.725810000000     0.906660000000     0.260460000000     0.0289348  
C727     C      0.726580000000     0.874030000000     0.259850000000     0.0348665  
C728     C      0.754950000000     0.873960000000     0.313600000000     0.0349035  
C729     C      0.754760000000     0.657610000000     0.508710000000     0.0355703  
C730     C      0.729490000000     0.657630000000     0.064310000000     0.035669   
C731     C      0.728500000000     0.624940000000     0.063730000000     0.0282972  
C732     C      0.755650000000     0.624920000000     0.509260000000     0.0283405  
C733     C      0.764380000000     0.872150000000     0.054780000000     0.0364981  
C734     C      0.719040000000     0.872110000000     0.518390000000     0.0364798  
C735     C      0.718060000000     0.904750000000     0.519990000000     0.0302686  
C736     C      0.765360000000     0.904790000000     0.053070000000     0.0303136  
C737     C      0.762500000000     0.747580000000     0.430080000000     0.0285986  
C738     C      0.720830000000     0.784100000000     0.430340000000     0.0290068  
C739     C      0.720920000000     0.784440000000     0.393170000000     0.0288558  
C740     C      0.762550000000     0.747870000000     0.392940000000     0.0286655  
C741     C      0.721660000000     0.747220000000     0.142960000000     0.0286268  
C742     C      0.762590000000     0.784550000000     0.142890000000     0.0291145  
C743     C      0.762250000000     0.785000000000     0.180070000000     0.028812   
C744     C      0.721370000000     0.747600000000     0.180110000000     0.0287065  
C745     C      0.999080000000     0.627360000000     0.322510000000     0.0251011  
C746     C      0.467090000000     0.626490000000     0.271480000000     0.0281352  
C747     C      0.470140000000     0.658950000000     0.268310000000     0.0340604  
C748     C      0.000110000000     0.660090000000     0.320850000000     0.0385304  
C749     C      0.510520000000     0.875240000000     0.306100000000     0.0345663  
C750     C      0.980280000000     0.873820000000     0.253760000000     0.035101   
C751     C      0.980030000000     0.906620000000     0.252810000000     0.0291385  
C752     C      0.512320000000     0.907810000000     0.303590000000     0.0285748  
C753     C      0.883130000000     0.770080000000     0.318030000000     0.0316585  
C754     C      0.882980000000     0.768550000000     0.255680000000     0.0323807  
C755     C      0.850110000000     0.768320000000     0.255690000000     0.0317794  
C756     C      0.850240000000     0.769720000000     0.318040000000     0.0325648  
C757     C      0.600230000000     0.765550000000     0.317480000000     0.0324128  
C758     C      0.600090000000     0.763770000000     0.255150000000     0.0315214  
C759     C      0.632980000000     0.764090000000     0.255150000000     0.0326472  
C760     C      0.633110000000     0.765730000000     0.317480000000     0.0317323  
C761     C      0.974610000000     0.657860000000     0.056710000000     0.0341344  
C762     C      0.503850000000     0.658580000000     0.503690000000     0.0349982  
C763     C      0.503400000000     0.625680000000     0.502820000000     0.0287665  
C764     C      0.972070000000     0.625370000000     0.054320000000     0.0280872  
C765     C      0.969040000000     0.874030000000     0.526640000000     0.0351198  
C766     C      0.514600000000     0.872330000000     0.062490000000     0.0356012  
C767     C      0.515100000000     0.905120000000     0.063610000000     0.031154   
C768     C      0.967580000000     0.906520000000     0.531120000000     0.029493   
C769     C      0.883430000000     0.766580000000     0.505040000000     0.0318391  
C770     C      0.883570000000     0.765450000000     0.067380000000     0.0315141  
C771     C      0.850680000000     0.764990000000     0.067450000000     0.031864   
C772     C      0.850520000000     0.766610000000     0.505120000000     0.0316292  
C773     C      0.600660000000     0.763890000000     0.068130000000     0.0319856  
C774     C      0.600530000000     0.766230000000     0.505820000000     0.0316207  
C775     C      0.633410000000     0.765750000000     0.505730000000     0.0321005  
C776     C      0.633570000000     0.764170000000     0.068070000000     0.0319419  
C777     C      0.513270000000     0.751560000000     0.430270000000     0.0280464  
C778     C      0.971980000000     0.788490000000     0.430480000000     0.0290673  
C779     C      0.972020000000     0.788680000000     0.393240000000     0.0287883  
C780     C      0.513250000000     0.751690000000     0.393160000000     0.0281819  
C781     C      0.972280000000     0.783150000000     0.142730000000     0.0278276  
C782     C      0.510180000000     0.742800000000     0.143350000000     0.0288561  
C783     C      0.509920000000     0.743040000000     0.180590000000     0.0286045  
C784     C      0.971980000000     0.783360000000     0.179850000000     0.028284   
C785     C      0.992450000000     0.825230000000     0.040520000000     0.470421   
C786     C      0.491350000000     0.706510000000     0.533130000000     0.470558   
C787     C      0.551850000000     0.765360000000     0.537080000000     0.473395   
C788     C      0.932270000000     0.766100000000     0.036110000000     0.473081   
C789     C      0.993510000000     0.826310000000     0.783250000000     0.471838   
C790     C      0.488700000000     0.707600000000     0.790570000000     0.472065   
C791     C      0.551410000000     0.765150000000     0.786510000000     0.477057   
C792     C      0.931790000000     0.768800000000     0.786650000000     0.475934   
C793     C      0.741780000000     0.824270000000     0.536570000000     0.478974   
C794     C      0.742160000000     0.705910000000     0.536540000000     0.476857   
C795     C      0.801830000000     0.765400000000     0.536480000000     0.473461   
C796     C      0.682230000000     0.764940000000     0.036700000000     0.474359   
C797     C      0.740790000000     0.825870000000     0.786670000000     0.47917    
C798     C      0.742560000000     0.707740000000     0.786410000000     0.483543   
C799     C      0.801450000000     0.768030000000     0.787000000000     0.478318   
C800     C      0.681790000000     0.765770000000     0.786180000000     0.477602   
C801     C      0.991640000000     0.953780000000     0.048760000000     0.401179   
C802     C      0.986340000000     0.577130000000     0.527990000000     0.399652   
C803     C      0.016890000000     0.528840000000     0.598050000000     0.41703    
C804     C      0.961020000000     0.001630000000     0.978170000000     0.407074   
C805     C      0.995200000000     0.955550000000     0.778030000000     0.400384   
C806     C      0.982870000000     0.578610000000     0.797910000000     0.400852   
C807     C      0.958860000000     0.502130000000     0.846260000000     0.415904   
C808     C      0.018710000000     0.032130000000     0.729740000000     0.416883   
C809     C      0.741740000000     0.952540000000     0.036410000000     0.404476   
C810     C      0.741990000000     0.576650000000     0.536460000000     0.403424   
C811     C      0.772940000000     0.512560000000     0.596330000000     0.411944   
C812     C      0.710770000000     0.012830000000     0.976520000000     0.410501   
C813     C      0.742410000000     0.578970000000     0.786350000000     0.408107   
C814     C      0.741380000000     0.954700000000     0.786490000000     0.405097   
C815     C      0.776490000000     0.015140000000     0.728750000000     0.413409   
C816     C      0.707320000000     0.515700000000     0.844090000000     0.414      
C817     C      0.703270000000     0.481920000000     0.926840000000     0.035991   
C818     C      0.679770000000     0.032140000000     0.929680000000     0.0320267  
C819     C      0.677880000000     0.032730000000     0.892740000000     0.0302426  
C820     C      0.700170000000     0.481990000000     0.890580000000     0.0345975  
C821     C      0.780160000000     0.981480000000     0.645910000000     0.0414056  
C822     C      0.804180000000     0.531460000000     0.643190000000     0.0328587  
C823     C      0.806110000000     0.531950000000     0.680140000000     0.030894   
C824     C      0.783270000000     0.981440000000     0.682180000000     0.0399471  
C825     C      0.425300000000     0.008900000000     0.930930000000     0.0269294  
C826     C      0.963770000000     0.468740000000     0.929480000000     0.0341509  
C827     C      0.962060000000     0.467990000000     0.893230000000     0.0354867  
C828     C      0.424050000000     0.008550000000     0.893960000000     0.0265124  
C829     C      0.552620000000     0.523970000000     0.645530000000     0.0329767  
C830     C      0.012660000000     0.062740000000     0.645500000000     0.0375226  
C831     C      0.014640000000     0.064900000000     0.681650000000     0.0359052  
C832     C      0.553930000000     0.525550000000     0.682460000000     0.031412   
C833     C      0.729000000000     0.659680000000     0.759120000000     0.0358763  
C834     C      0.756520000000     0.659630000000     0.813440000000     0.0359098  
C835     C      0.757390000000     0.627020000000     0.812810000000     0.0286882  
C836     C      0.728020000000     0.627090000000     0.759730000000     0.0286249  
C837     C      0.756120000000     0.906560000000     0.812860000000     0.0289245  
C838     C      0.725820000000     0.906660000000     0.760450000000     0.0288163  
C839     C      0.726600000000     0.874030000000     0.759840000000     0.0350033  
C840     C      0.754960000000     0.873960000000     0.813600000000     0.0348219  
C841     C      0.754760000000     0.657620000000     0.008710000000     0.0362135  
C842     C      0.729500000000     0.657630000000     0.564320000000     0.0355959  
C843     C      0.728510000000     0.624940000000     0.563730000000     0.0283314  
C844     C      0.755650000000     0.624920000000     0.009250000000     0.0287791  
C845     C      0.764390000000     0.872150000000     0.554780000000     0.0364348  
C846     C      0.719040000000     0.872110000000     0.018380000000     0.0364661  
C847     C      0.718060000000     0.904750000000     0.019990000000     0.0303708  
C848     C      0.765370000000     0.904790000000     0.553070000000     0.0302223  
C849     C      0.762500000000     0.747580000000     0.930080000000     0.0285299  
C850     C      0.720830000000     0.784110000000     0.930340000000     0.0288065  
C851     C      0.720920000000     0.784440000000     0.893170000000     0.0289109  
C852     C      0.762550000000     0.747870000000     0.892930000000     0.0286554  
C853     C      0.721660000000     0.747220000000     0.642960000000     0.028631   
C854     C      0.762590000000     0.784550000000     0.642890000000     0.0291156  
C855     C      0.762250000000     0.785000000000     0.680070000000     0.0288167  
C856     C      0.721370000000     0.747600000000     0.680110000000     0.0287184  
C857     C      0.999080000000     0.627360000000     0.822520000000     0.0249983  
C858     C      0.467090000000     0.626490000000     0.771480000000     0.0281762  
C859     C      0.470140000000     0.658950000000     0.768310000000     0.0339742  
C860     C      0.000110000000     0.660090000000     0.820850000000     0.0385608  
C861     C      0.510520000000     0.875240000000     0.806100000000     0.0345492  
C862     C      0.980280000000     0.873820000000     0.753760000000     0.0350941  
C863     C      0.980030000000     0.906620000000     0.752810000000     0.0291566  
C864     C      0.512320000000     0.907810000000     0.803590000000     0.0285936  
C865     C      0.883130000000     0.770080000000     0.818030000000     0.0316486  
C866     C      0.882980000000     0.768550000000     0.755690000000     0.0324723  
C867     C      0.850110000000     0.768320000000     0.755690000000     0.0317416  
C868     C      0.850240000000     0.769720000000     0.818040000000     0.032566   
C869     C      0.600230000000     0.765550000000     0.817480000000     0.0324079  
C870     C      0.600090000000     0.763770000000     0.755150000000     0.0315169  
C871     C      0.632990000000     0.764090000000     0.755150000000     0.0326792  
C872     C      0.633110000000     0.765730000000     0.817480000000     0.0317132  
C873     C      0.974610000000     0.657860000000     0.556710000000     0.0341412  
C874     C      0.503850000000     0.658580000000     0.003690000000     0.0355477  
C875     C      0.503400000000     0.625680000000     0.002820000000     0.0293657  
C876     C      0.972070000000     0.625370000000     0.554320000000     0.028049   
C877     C      0.969040000000     0.874030000000     0.026640000000     0.0351534  
C878     C      0.514600000000     0.872330000000     0.562490000000     0.0355714  
C879     C      0.515100000000     0.905120000000     0.563610000000     0.0311155  
C880     C      0.967580000000     0.906520000000     0.031120000000     0.0295752  
C881     C      0.883430000000     0.766580000000     0.005040000000     0.0323899  
C882     C      0.883570000000     0.765450000000     0.567380000000     0.031503   
C883     C      0.850680000000     0.764990000000     0.567450000000     0.0318491  
C884     C      0.850510000000     0.766620000000     0.005120000000     0.0322136  
C885     C      0.600660000000     0.763890000000     0.568130000000     0.0319703  
C886     C      0.600530000000     0.766230000000     0.005820000000     0.032179   
C887     C      0.633410000000     0.765760000000     0.005730000000     0.0326472  
C888     C      0.633570000000     0.764170000000     0.568070000000     0.0319322  
C889     C      0.513270000000     0.751560000000     0.930280000000     0.028019   
C890     C      0.971980000000     0.788490000000     0.930480000000     0.0289771  
C891     C      0.972020000000     0.788680000000     0.893240000000     0.028775   
C892     C      0.513260000000     0.751690000000     0.893160000000     0.0280826  
C893     C      0.972280000000     0.783150000000     0.642730000000     0.0277777  
C894     C      0.510180000000     0.742800000000     0.643350000000     0.0288586  
C895     C      0.509920000000     0.743040000000     0.680590000000     0.0286047  
C896     C      0.971980000000     0.783360000000     0.679850000000     0.0283028  
Cu1      Cu     0.992230000000     0.264230000000     0.074510000000     1.19992    
Cu2      Cu     0.491930000000     0.267850000000     0.498870000000     1.19263    
Cu3      Cu     0.992480000000     0.268770000000     0.324650000000     1.20709    
Cu4      Cu     0.490700000000     0.265060000000     0.248770000000     1.20366    
Cu5      Cu     0.242400000000     0.265260000000     0.074460000000     1.20886    
Cu6      Cu     0.241640000000     0.265340000000     0.498680000000     1.20811    
Cu7      Cu     0.242280000000     0.266710000000     0.324590000000     1.22172    
Cu8      Cu     0.240980000000     0.266810000000     0.248550000000     1.22226    
Cu9      Cu     0.015430000000     0.014170000000     0.024370000000     0.850272   
Cu10     Cu     0.462600000000     0.516510000000     0.551760000000     0.866187   
Cu11     Cu     0.014480000000     0.017310000000     0.303770000000     0.861065   
Cu12     Cu     0.463280000000     0.516840000000     0.272270000000     0.864027   
Cu13     Cu     0.267390000000     0.014430000000     0.021170000000     0.849574   
Cu14     Cu     0.216330000000     0.514520000000     0.551690000000     0.854876   
Cu15     Cu     0.266400000000     0.516710000000     0.304260000000     0.866701   
Cu16     Cu     0.217370000000     0.017030000000     0.268590000000     0.861227   
Cu17     Cu     0.992230000000     0.264230000000     0.574510000000     1.19958    
Cu18     Cu     0.491930000000     0.267850000000     0.998870000000     1.1902     
Cu19     Cu     0.992480000000     0.268770000000     0.824650000000     1.20709    
Cu20     Cu     0.490700000000     0.265060000000     0.748770000000     1.20361    
Cu21     Cu     0.242400000000     0.265260000000     0.574460000000     1.20869    
Cu22     Cu     0.241640000000     0.265340000000     0.998680000000     1.2057     
Cu23     Cu     0.242280000000     0.266710000000     0.824580000000     1.22143    
Cu24     Cu     0.240990000000     0.266810000000     0.748550000000     1.22215    
Cu25     Cu     0.015430000000     0.014170000000     0.524370000000     0.849916   
Cu26     Cu     0.462600000000     0.516510000000     0.051760000000     0.866274   
Cu27     Cu     0.014480000000     0.017310000000     0.803780000000     0.860925   
Cu28     Cu     0.463280000000     0.516840000000     0.772270000000     0.863993   
Cu29     Cu     0.267390000000     0.014430000000     0.521170000000     0.848985   
Cu30     Cu     0.216320000000     0.514520000000     0.051680000000     0.854648   
Cu31     Cu     0.266430000000     0.516710000000     0.804250000000     0.866751   
Cu32     Cu     0.217390000000     0.017030000000     0.768580000000     0.861203   
Cu33     Cu     0.992230000000     0.764230000000     0.074510000000     1.19991    
Cu34     Cu     0.491930000000     0.767850000000     0.498870000000     1.19268    
Cu35     Cu     0.992490000000     0.768770000000     0.324650000000     1.207      
Cu36     Cu     0.490710000000     0.765060000000     0.248770000000     1.20352    
Cu37     Cu     0.242410000000     0.765260000000     0.074460000000     1.20896    
Cu38     Cu     0.241640000000     0.765340000000     0.498680000000     1.2081     
Cu39     Cu     0.242280000000     0.766710000000     0.324590000000     1.22149    
Cu40     Cu     0.240990000000     0.766820000000     0.248550000000     1.22214    
Cu41     Cu     0.015440000000     0.514170000000     0.024370000000     0.856229   
Cu42     Cu     0.462590000000     0.016510000000     0.551760000000     0.860656   
Cu43     Cu     0.014470000000     0.517310000000     0.303770000000     0.866781   
Cu44     Cu     0.463290000000     0.016840000000     0.272270000000     0.858367   
Cu45     Cu     0.267360000000     0.514430000000     0.021160000000     0.855009   
Cu46     Cu     0.216350000000     0.014520000000     0.551700000000     0.8494     
Cu47     Cu     0.266360000000     0.016710000000     0.304270000000     0.861013   
Cu48     Cu     0.217410000000     0.517030000000     0.268580000000     0.866815   
Cu49     Cu     0.992230000000     0.764220000000     0.574510000000     1.19963    
Cu50     Cu     0.491930000000     0.767850000000     0.998870000000     1.19032    
Cu51     Cu     0.992490000000     0.768770000000     0.824650000000     1.20702    
Cu52     Cu     0.490710000000     0.765060000000     0.748780000000     1.20342    
Cu53     Cu     0.242410000000     0.765260000000     0.574460000000     1.20848    
Cu54     Cu     0.241640000000     0.765340000000     0.998680000000     1.20567    
Cu55     Cu     0.242290000000     0.766710000000     0.824590000000     1.22169    
Cu56     Cu     0.240990000000     0.766820000000     0.748550000000     1.22221    
Cu57     Cu     0.015440000000     0.514170000000     0.524370000000     0.855705   
Cu58     Cu     0.462590000000     0.016510000000     0.051760000000     0.860762   
Cu59     Cu     0.014470000000     0.517310000000     0.803780000000     0.866828   
Cu60     Cu     0.463290000000     0.016840000000     0.772270000000     0.858413   
Cu61     Cu     0.267370000000     0.514430000000     0.521160000000     0.85444    
Cu62     Cu     0.216350000000     0.014520000000     0.051690000000     0.84907    
Cu63     Cu     0.266380000000     0.016710000000     0.804260000000     0.861107   
Cu64     Cu     0.217440000000     0.517030000000     0.768570000000     0.866728   
Cu65     Cu     0.492220000000     0.264230000000     0.074510000000     1.20119    
Cu66     Cu     0.991930000000     0.267850000000     0.498870000000     1.19132    
Cu67     Cu     0.492480000000     0.268770000000     0.324650000000     1.20852    
Cu68     Cu     0.990700000000     0.265050000000     0.248770000000     1.20216    
Cu69     Cu     0.742400000000     0.265250000000     0.074460000000     1.20887    
Cu70     Cu     0.741640000000     0.265330000000     0.498680000000     1.20787    
Cu71     Cu     0.742280000000     0.266710000000     0.324590000000     1.22172    
Cu72     Cu     0.740980000000     0.266810000000     0.248550000000     1.22245    
Cu73     Cu     0.515440000000     0.014170000000     0.024370000000     0.848184   
Cu74     Cu     0.962590000000     0.516510000000     0.551750000000     0.865215   
Cu75     Cu     0.514480000000     0.017310000000     0.303780000000     0.858906   
Cu76     Cu     0.963270000000     0.516840000000     0.272280000000     0.8629     
Cu77     Cu     0.767390000000     0.014430000000     0.021170000000     0.849562   
Cu78     Cu     0.716330000000     0.514520000000     0.551690000000     0.854772   
Cu79     Cu     0.766400000000     0.516700000000     0.304260000000     0.866734   
Cu80     Cu     0.717370000000     0.017020000000     0.268600000000     0.861045   
Cu81     Cu     0.492230000000     0.264230000000     0.574510000000     1.20092    
Cu82     Cu     0.991930000000     0.267850000000     0.998870000000     1.18895    
Cu83     Cu     0.492480000000     0.268770000000     0.824650000000     1.20854    
Cu84     Cu     0.990700000000     0.265050000000     0.748770000000     1.20211    
Cu85     Cu     0.742400000000     0.265250000000     0.574460000000     1.20847    
Cu86     Cu     0.741640000000     0.265340000000     0.998680000000     1.20527    
Cu87     Cu     0.742280000000     0.266710000000     0.824580000000     1.22144    
Cu88     Cu     0.740980000000     0.266810000000     0.748550000000     1.22217    
Cu89     Cu     0.515440000000     0.014170000000     0.524370000000     0.847698   
Cu90     Cu     0.962590000000     0.516510000000     0.051750000000     0.865171   
Cu91     Cu     0.514470000000     0.017310000000     0.803790000000     0.858812   
Cu92     Cu     0.963270000000     0.516840000000     0.772280000000     0.862972   
Cu93     Cu     0.767390000000     0.014430000000     0.521170000000     0.849032   
Cu94     Cu     0.716320000000     0.514520000000     0.051680000000     0.854645   
Cu95     Cu     0.766430000000     0.516700000000     0.804250000000     0.866744   
Cu96     Cu     0.717390000000     0.017020000000     0.768590000000     0.861208   
Cu97     Cu     0.492230000000     0.764230000000     0.074510000000     1.20126    
Cu98     Cu     0.991930000000     0.767850000000     0.498870000000     1.19145    
Cu99     Cu     0.492490000000     0.768770000000     0.324650000000     1.20854    
Cu100    Cu     0.990710000000     0.765050000000     0.248780000000     1.20208    
Cu101    Cu     0.742410000000     0.765250000000     0.074460000000     1.20881    
Cu102    Cu     0.741640000000     0.765330000000     0.498680000000     1.20795    
Cu103    Cu     0.742280000000     0.766710000000     0.324590000000     1.22171    
Cu104    Cu     0.740990000000     0.766810000000     0.248550000000     1.22217    
Cu105    Cu     0.515440000000     0.514170000000     0.024370000000     0.854122   
Cu106    Cu     0.962580000000     0.016510000000     0.551750000000     0.859528   
Cu107    Cu     0.514470000000     0.517310000000     0.303790000000     0.864807   
Cu108    Cu     0.963280000000     0.016840000000     0.272280000000     0.857378   
Cu109    Cu     0.767360000000     0.514430000000     0.021160000000     0.855043   
Cu110    Cu     0.716360000000     0.014520000000     0.551700000000     0.849262   
Cu111    Cu     0.766360000000     0.016700000000     0.304270000000     0.861004   
Cu112    Cu     0.717410000000     0.517030000000     0.268580000000     0.866782   
Cu113    Cu     0.492230000000     0.764230000000     0.574510000000     1.20092    
Cu114    Cu     0.991930000000     0.767850000000     0.998870000000     1.18905    
Cu115    Cu     0.492490000000     0.768770000000     0.824650000000     1.20839    
Cu116    Cu     0.990710000000     0.765050000000     0.748780000000     1.20191    
Cu117    Cu     0.742410000000     0.765250000000     0.574460000000     1.20849    
Cu118    Cu     0.741640000000     0.765340000000     0.998680000000     1.20551    
Cu119    Cu     0.742290000000     0.766710000000     0.824590000000     1.22177    
Cu120    Cu     0.740990000000     0.766810000000     0.748550000000     1.22223    
Cu121    Cu     0.515440000000     0.514170000000     0.524370000000     0.853624   
Cu122    Cu     0.962580000000     0.016510000000     0.051750000000     0.859464   
Cu123    Cu     0.514460000000     0.517310000000     0.803790000000     0.864759   
Cu124    Cu     0.963280000000     0.016840000000     0.772280000000     0.857468   
Cu125    Cu     0.767360000000     0.514430000000     0.521160000000     0.854562   
Cu126    Cu     0.716350000000     0.014520000000     0.051690000000     0.849221   
Cu127    Cu     0.766380000000     0.016710000000     0.804260000000     0.860936   
Cu128    Cu     0.717440000000     0.517030000000     0.768570000000     0.866821   
H1       H      0.214820000000     0.962150000000     0.439420000000     0.0320729  
H2       H      0.173130000000     0.552900000000     0.444460000000     0.0329005  
H3       H      0.170400000000     0.554130000000     0.379740000000     0.0306752  
H4       H      0.209920000000     0.962460000000     0.375830000000     0.0317612  
H5       H      0.268350000000     0.461850000000     0.133310000000     0.0318018  
H6       H      0.311020000000     0.052160000000     0.128500000000     0.0326002  
H7       H      0.313800000000     0.053220000000     0.193220000000     0.0304179  
H8       H      0.273250000000     0.461980000000     0.196890000000     0.0315325  
H9       H      0.911880000000     0.526410000000     0.445170000000     0.0349971  
H10      H      0.480450000000     0.953430000000     0.442640000000     0.0354938  
H11      H      0.477850000000     0.952460000000     0.379010000000     0.0332205  
H12      H      0.910060000000     0.526060000000     0.380450000000     0.0332039  
H13      H      0.066580000000     0.006520000000     0.131890000000     0.0316203  
H14      H      0.495310000000     0.576870000000     0.131770000000     0.03156    
H15      H      0.498390000000     0.580360000000     0.195280000000     0.0318565  
H16      H      0.068470000000     0.008910000000     0.196600000000     0.0325815  
H17      H      0.217590000000     0.171720000000     0.237330000000     0.0351785  
H18      H      0.267850000000     0.171650000000     0.335260000000     0.0351113  
H19      H      0.268910000000     0.114970000000     0.334470000000     0.0381364  
H20      H      0.216320000000     0.115100000000     0.238100000000     0.0382225  
H21      H      0.268180000000     0.418580000000     0.334210000000     0.0376022  
H22      H      0.213940000000     0.418750000000     0.239050000000     0.0374876  
H23      H      0.214850000000     0.362020000000     0.238280000000     0.0370774  
H24      H      0.266630000000     0.361900000000     0.335180000000     0.0371922  
H25      H      0.265260000000     0.169620000000     0.486340000000     0.0349381  
H26      H      0.219050000000     0.169640000000     0.086700000000     0.0349104  
H27      H      0.217780000000     0.112950000000     0.085940000000     0.0385189  
H28      H      0.266390000000     0.112910000000     0.487050000000     0.0384092  
H29      H      0.282750000000     0.359930000000     0.069160000000     0.0322348  
H30      H      0.200660000000     0.359830000000     0.504030000000     0.0323724  
H31      H      0.199210000000     0.417030000000     0.506410000000     0.0335774  
H32      H      0.284180000000     0.417120000000     0.066600000000     0.0336031  
H33      H      0.279060000000     0.232960000000     0.444230000000     0.0234305  
H34      H      0.204220000000     0.298510000000     0.444710000000     0.0256627  
H35      H      0.204440000000     0.299150000000     0.379000000000     0.0229463  
H36      H      0.279160000000     0.233460000000     0.378580000000     0.0257468  
H37      H      0.205470000000     0.232240000000     0.128730000000     0.0235064  
H38      H      0.278990000000     0.299240000000     0.128600000000     0.0253325  
H39      H      0.278350000000     0.300050000000     0.194310000000     0.0229518  
H40      H      0.204990000000     0.232880000000     0.194370000000     0.0256     
H41      H      0.511310000000     0.115690000000     0.343950000000     0.0374751  
H42      H      0.953910000000     0.114150000000     0.251250000000     0.0370094  
H43      H      0.958550000000     0.170480000000     0.246330000000     0.0361163  
H44      H      0.513250000000     0.172520000000     0.341040000000     0.0351087  
H45      H      0.022670000000     0.363810000000     0.327770000000     0.0368681  
H46      H      0.467470000000     0.361200000000     0.233440000000     0.0353338  
H47      H      0.467260000000     0.418210000000     0.231700000000     0.0384448  
H48      H      0.025220000000     0.420260000000     0.323950000000     0.0378727  
H49      H      0.395140000000     0.270740000000     0.343320000000     0.0357883  
H50      H      0.394830000000     0.268040000000     0.230290000000     0.0371826  
H51      H      0.338120000000     0.267630000000     0.230380000000     0.0356952  
H52      H      0.338360000000     0.270180000000     0.343410000000     0.0371616  
H53      H      0.088370000000     0.266190000000     0.342860000000     0.0368908  
H54      H      0.088080000000     0.263000000000     0.229850000000     0.0360419  
H55      H      0.144860000000     0.263480000000     0.229780000000     0.0369913  
H56      H      0.145080000000     0.266550000000     0.342790000000     0.0356244  
H57      H      0.463070000000     0.169520000000     0.078670000000     0.0359233  
H58      H      0.016460000000     0.170940000000     0.483010000000     0.0343914  
H59      H      0.015430000000     0.113740000000     0.481420000000     0.0372109  
H60      H      0.459240000000     0.113320000000     0.075070000000     0.0371277  
H61      H      0.450750000000     0.362510000000     0.511370000000     0.0323605  
H62      H      0.033300000000     0.359460000000     0.075580000000     0.0343707  
H63      H      0.034080000000     0.416810000000     0.077570000000     0.0339058  
H64      H      0.448610000000     0.419340000000     0.518430000000     0.0346117  
H65      H      0.395320000000     0.267210000000     0.479680000000     0.0367071  
H66      H      0.395560000000     0.265010000000     0.092690000000     0.0360463  
H67      H      0.338810000000     0.264380000000     0.092820000000     0.0365674  
H68      H      0.338500000000     0.267110000000     0.479820000000     0.0359559  
H69      H      0.088750000000     0.263080000000     0.093470000000     0.036833   
H70      H      0.088530000000     0.267090000000     0.480530000000     0.0357872  
H71      H      0.145300000000     0.266500000000     0.480360000000     0.0362335  
H72      H      0.145590000000     0.263350000000     0.093340000000     0.0357536  
H73      H      0.029560000000     0.236650000000     0.444420000000     0.0244094  
H74      H      0.455390000000     0.302930000000     0.444830000000     0.0249572  
H75      H      0.455530000000     0.303330000000     0.379010000000     0.0228704  
H76      H      0.029550000000     0.236870000000     0.378900000000     0.026361   
H77      H      0.457440000000     0.299270000000     0.128240000000     0.025215   
H78      H      0.025470000000     0.226780000000     0.129320000000     0.0248013  
H79      H      0.024980000000     0.227190000000     0.195150000000     0.0228909  
H80      H      0.456830000000     0.299580000000     0.193780000000     0.0267958  
H81      H      0.214840000000     0.962150000000     0.939410000000     0.0319797  
H82      H      0.173130000000     0.552890000000     0.944450000000     0.032777   
H83      H      0.170410000000     0.554120000000     0.879720000000     0.0306629  
H84      H      0.209950000000     0.962460000000     0.875820000000     0.0316882  
H85      H      0.268390000000     0.461850000000     0.633300000000     0.0318116  
H86      H      0.311030000000     0.052170000000     0.628480000000     0.0325974  
H87      H      0.313810000000     0.053230000000     0.693210000000     0.0304138  
H88      H      0.273290000000     0.461980000000     0.696890000000     0.0315161  
H89      H      0.911880000000     0.526410000000     0.945170000000     0.0348804  
H90      H      0.480450000000     0.953430000000     0.942640000000     0.0353411  
H91      H      0.477840000000     0.952460000000     0.879010000000     0.0332256  
H92      H      0.910060000000     0.526060000000     0.880450000000     0.0331526  
H93      H      0.066580000000     0.006520000000     0.631890000000     0.0315951  
H94      H      0.495310000000     0.576870000000     0.631770000000     0.0315464  
H95      H      0.498390000000     0.580360000000     0.695280000000     0.0318675  
H96      H      0.068480000000     0.008910000000     0.696600000000     0.0326051  
H97      H      0.217590000000     0.171720000000     0.737330000000     0.0351562  
H98      H      0.267850000000     0.171650000000     0.835260000000     0.0350712  
H99      H      0.268920000000     0.114970000000     0.834460000000     0.0381275  
H100     H      0.216340000000     0.115100000000     0.738100000000     0.0382556  
H101     H      0.268190000000     0.418580000000     0.834200000000     0.0375697  
H102     H      0.213960000000     0.418750000000     0.739030000000     0.0374738  
H103     H      0.214860000000     0.362020000000     0.738270000000     0.0370738  
H104     H      0.266640000000     0.361900000000     0.835170000000     0.0371778  
H105     H      0.265260000000     0.169630000000     0.986340000000     0.0343948  
H106     H      0.219060000000     0.169640000000     0.586700000000     0.0348993  
H107     H      0.217790000000     0.112940000000     0.585950000000     0.0384942  
H108     H      0.266390000000     0.112910000000     0.987050000000     0.0378408  
H109     H      0.282760000000     0.359930000000     0.569160000000     0.0321869  
H110     H      0.200660000000     0.359830000000     0.004020000000     0.0324852  
H111     H      0.199200000000     0.417030000000     0.006410000000     0.0337097  
H112     H      0.284180000000     0.417120000000     0.566600000000     0.0335895  
H113     H      0.279050000000     0.232960000000     0.944230000000     0.0233296  
H114     H      0.204220000000     0.298510000000     0.944700000000     0.0255402  
H115     H      0.204440000000     0.299150000000     0.879000000000     0.022966   
H116     H      0.279160000000     0.233470000000     0.878580000000     0.0257549  
H117     H      0.205470000000     0.232240000000     0.628730000000     0.0234777  
H118     H      0.279000000000     0.299240000000     0.628600000000     0.0253081  
H119     H      0.278350000000     0.300050000000     0.694310000000     0.0229704  
H120     H      0.204990000000     0.232880000000     0.694370000000     0.0256136  
H121     H      0.511310000000     0.115690000000     0.843950000000     0.0374537  
H122     H      0.953910000000     0.114150000000     0.751250000000     0.0370341  
H123     H      0.958550000000     0.170490000000     0.746320000000     0.0360961  
H124     H      0.513250000000     0.172520000000     0.841050000000     0.0350571  
H125     H      0.022670000000     0.363810000000     0.827770000000     0.0368675  
H126     H      0.467470000000     0.361200000000     0.733440000000     0.0353379  
H127     H      0.467260000000     0.418210000000     0.731700000000     0.0384431  
H128     H      0.025210000000     0.420260000000     0.823960000000     0.037817   
H129     H      0.395140000000     0.270740000000     0.843320000000     0.0357726  
H130     H      0.394830000000     0.268040000000     0.730290000000     0.0372037  
H131     H      0.338120000000     0.267630000000     0.730380000000     0.0356837  
H132     H      0.338360000000     0.270180000000     0.843410000000     0.0371716  
H133     H      0.088370000000     0.266190000000     0.842860000000     0.036871   
H134     H      0.088080000000     0.263000000000     0.729860000000     0.03606    
H135     H      0.144870000000     0.263480000000     0.729780000000     0.0369982  
H136     H      0.145080000000     0.266550000000     0.842790000000     0.0355902  
H137     H      0.463070000000     0.169520000000     0.578670000000     0.0359028  
H138     H      0.016460000000     0.170940000000     0.983010000000     0.033843   
H139     H      0.015430000000     0.113740000000     0.981410000000     0.0366469  
H140     H      0.459240000000     0.113320000000     0.575070000000     0.037114   
H141     H      0.450750000000     0.362510000000     0.011370000000     0.0324788  
H142     H      0.033300000000     0.359460000000     0.575580000000     0.0343375  
H143     H      0.034080000000     0.416810000000     0.577580000000     0.0339103  
H144     H      0.448610000000     0.419340000000     0.018430000000     0.0347097  
H145     H      0.395320000000     0.267210000000     0.979680000000     0.0361626  
H146     H      0.395560000000     0.265010000000     0.592690000000     0.0360299  
H147     H      0.338810000000     0.264380000000     0.592820000000     0.0365905  
H148     H      0.338500000000     0.267120000000     0.979830000000     0.0354239  
H149     H      0.088750000000     0.263080000000     0.593480000000     0.0368152  
H150     H      0.088520000000     0.267090000000     0.980530000000     0.035249   
H151     H      0.145290000000     0.266500000000     0.980360000000     0.0357071  
H152     H      0.145590000000     0.263350000000     0.593340000000     0.0357599  
H153     H      0.029560000000     0.236650000000     0.944420000000     0.0243178  
H154     H      0.455390000000     0.302930000000     0.944830000000     0.0248533  
H155     H      0.455530000000     0.303330000000     0.879010000000     0.0228447  
H156     H      0.029550000000     0.236870000000     0.878900000000     0.0263703  
H157     H      0.457440000000     0.299270000000     0.628240000000     0.0252428  
H158     H      0.025470000000     0.226780000000     0.629320000000     0.0248051  
H159     H      0.024980000000     0.227190000000     0.695150000000     0.0228958  
H160     H      0.456830000000     0.299580000000     0.693780000000     0.0267939  
H161     H      0.214760000000     0.462120000000     0.439440000000     0.0318315  
H162     H      0.173130000000     0.052900000000     0.444490000000     0.0328193  
H163     H      0.170340000000     0.054120000000     0.379750000000     0.0306562  
H164     H      0.209930000000     0.462450000000     0.375830000000     0.0315129  
H165     H      0.268410000000     0.961820000000     0.133290000000     0.0320581  
H166     H      0.311020000000     0.552150000000     0.128470000000     0.0326559  
H167     H      0.313850000000     0.553200000000     0.193210000000     0.0304945  
H168     H      0.273250000000     0.961970000000     0.196890000000     0.0317437  
H169     H      0.911870000000     0.026400000000     0.445160000000     0.035635   
H170     H      0.480450000000     0.453430000000     0.442640000000     0.0342294  
H171     H      0.477830000000     0.452450000000     0.379000000000     0.0321177  
H172     H      0.910060000000     0.026050000000     0.380450000000     0.0337953  
H173     H      0.066590000000     0.506520000000     0.131890000000     0.0328631  
H174     H      0.495310000000     0.076880000000     0.131760000000     0.0315563  
H175     H      0.498400000000     0.080360000000     0.195280000000     0.0318484  
H176     H      0.068470000000     0.508910000000     0.196610000000     0.0337849  
H177     H      0.217620000000     0.671720000000     0.237330000000     0.0351653  
H178     H      0.267880000000     0.671660000000     0.335260000000     0.0350987  
H179     H      0.268950000000     0.614970000000     0.334460000000     0.0382111  
H180     H      0.216370000000     0.615100000000     0.238090000000     0.0382817  
H181     H      0.268150000000     0.918580000000     0.334220000000     0.0383089  
H182     H      0.213910000000     0.918750000000     0.239060000000     0.0382159  
H183     H      0.214830000000     0.862020000000     0.238290000000     0.0373022  
H184     H      0.266620000000     0.861900000000     0.335180000000     0.0373732  
H185     H      0.265240000000     0.669620000000     0.486340000000     0.034919   
H186     H      0.219030000000     0.669640000000     0.086690000000     0.0348981  
H187     H      0.217750000000     0.612950000000     0.085930000000     0.0385746  
H188     H      0.266360000000     0.612910000000     0.487040000000     0.0384701  
H189     H      0.282770000000     0.859920000000     0.069160000000     0.0324016  
H190     H      0.200670000000     0.859830000000     0.504030000000     0.0325706  
H191     H      0.199230000000     0.917040000000     0.506420000000     0.0343058  
H192     H      0.284200000000     0.917110000000     0.066600000000     0.0343283  
H193     H      0.279060000000     0.732960000000     0.444240000000     0.0233723  
H194     H      0.204220000000     0.798510000000     0.444710000000     0.0257179  
H195     H      0.204440000000     0.799140000000     0.379000000000     0.0230769  
H196     H      0.279160000000     0.733470000000     0.378590000000     0.0257949  
H197     H      0.205480000000     0.732240000000     0.128740000000     0.0234714  
H198     H      0.279000000000     0.799240000000     0.128600000000     0.0253994  
H199     H      0.278350000000     0.800050000000     0.194310000000     0.0230328  
H200     H      0.204990000000     0.732880000000     0.194370000000     0.0255997  
H201     H      0.511300000000     0.615690000000     0.343960000000     0.0375791  
H202     H      0.953900000000     0.614150000000     0.251260000000     0.0370931  
H203     H      0.958550000000     0.670490000000     0.246330000000     0.0360886  
H204     H      0.513250000000     0.672520000000     0.341050000000     0.0350775  
H205     H      0.022680000000     0.863810000000     0.327770000000     0.0370819  
H206     H      0.467480000000     0.861200000000     0.233440000000     0.0355569  
H207     H      0.467270000000     0.918210000000     0.231700000000     0.0392895  
H208     H      0.025230000000     0.920260000000     0.323950000000     0.0385926  
H209     H      0.395140000000     0.770750000000     0.343320000000     0.0358289  
H210     H      0.394830000000     0.768050000000     0.230290000000     0.0372001  
H211     H      0.338130000000     0.767650000000     0.230380000000     0.0357038  
H212     H      0.338360000000     0.770190000000     0.343410000000     0.0372341  
H213     H      0.088370000000     0.766180000000     0.342860000000     0.0368999  
H214     H      0.088080000000     0.763000000000     0.229860000000     0.0361302  
H215     H      0.144870000000     0.763470000000     0.229780000000     0.0370019  
H216     H      0.145090000000     0.766530000000     0.342790000000     0.0356533  
H217     H      0.463080000000     0.669520000000     0.078670000000     0.0359248  
H218     H      0.016470000000     0.670940000000     0.483010000000     0.0343795  
H219     H      0.015430000000     0.613740000000     0.481420000000     0.0373076  
H220     H      0.459240000000     0.613320000000     0.075070000000     0.0371673  
H221     H      0.450750000000     0.862510000000     0.511370000000     0.0325778  
H222     H      0.033290000000     0.859460000000     0.075590000000     0.0346054  
H223     H      0.034080000000     0.916810000000     0.077580000000     0.0348481  
H224     H      0.448610000000     0.919340000000     0.518430000000     0.0354279  
H225     H      0.395320000000     0.767200000000     0.479680000000     0.0367273  
H226     H      0.395560000000     0.765000000000     0.092690000000     0.0360509  
H227     H      0.338810000000     0.764370000000     0.092830000000     0.0365888  
H228     H      0.338500000000     0.767110000000     0.479830000000     0.0360037  
H229     H      0.088750000000     0.763090000000     0.093480000000     0.0368685  
H230     H      0.088530000000     0.767100000000     0.480530000000     0.0357979  
H231     H      0.145300000000     0.766510000000     0.480370000000     0.0362904  
H232     H      0.145590000000     0.763360000000     0.093350000000     0.0357979  
H233     H      0.029560000000     0.736650000000     0.444430000000     0.0243918  
H234     H      0.455390000000     0.802930000000     0.444830000000     0.0250426  
H235     H      0.455540000000     0.803340000000     0.379020000000     0.0229661  
H236     H      0.029550000000     0.736870000000     0.378900000000     0.0263805  
H237     H      0.457440000000     0.799270000000     0.128250000000     0.0253144  
H238     H      0.025470000000     0.726780000000     0.129320000000     0.0247866  
H239     H      0.024980000000     0.727180000000     0.195150000000     0.0228823  
H240     H      0.456840000000     0.799580000000     0.193780000000     0.0269022  
H241     H      0.214780000000     0.462120000000     0.939430000000     0.0316755  
H242     H      0.173130000000     0.052890000000     0.944480000000     0.0327374  
H243     H      0.170350000000     0.054110000000     0.879740000000     0.0305923  
H244     H      0.209960000000     0.462440000000     0.875820000000     0.0315089  
H245     H      0.268440000000     0.961820000000     0.633290000000     0.03207    
H246     H      0.311030000000     0.552160000000     0.628450000000     0.0326611  
H247     H      0.313870000000     0.553220000000     0.693190000000     0.0304542  
H248     H      0.273280000000     0.961970000000     0.696890000000     0.0317158  
H249     H      0.911870000000     0.026400000000     0.945160000000     0.0354812  
H250     H      0.480440000000     0.453430000000     0.942640000000     0.0341371  
H251     H      0.477830000000     0.452450000000     0.879000000000     0.0320918  
H252     H      0.910060000000     0.026050000000     0.880450000000     0.0337941  
H253     H      0.066590000000     0.506520000000     0.631900000000     0.0328427  
H254     H      0.495310000000     0.076880000000     0.631760000000     0.0315463  
H255     H      0.498400000000     0.080360000000     0.695290000000     0.0318814  
H256     H      0.068470000000     0.508910000000     0.696610000000     0.0337947  
H257     H      0.217630000000     0.671720000000     0.737330000000     0.0351809  
H258     H      0.267880000000     0.671660000000     0.835260000000     0.0350543  
H259     H      0.268960000000     0.614970000000     0.834450000000     0.0381961  
H260     H      0.216380000000     0.615100000000     0.738090000000     0.0382962  
H261     H      0.268160000000     0.918580000000     0.834210000000     0.0382596  
H262     H      0.213930000000     0.918750000000     0.739040000000     0.0382177  
H263     H      0.214840000000     0.862020000000     0.738280000000     0.0372839  
H264     H      0.266630000000     0.861900000000     0.835180000000     0.0373671  
H265     H      0.265240000000     0.669630000000     0.986340000000     0.03437    
H266     H      0.219040000000     0.669640000000     0.586700000000     0.0349047  
H267     H      0.217760000000     0.612940000000     0.585940000000     0.038552   
H268     H      0.266360000000     0.612910000000     0.987030000000     0.0379024  
H269     H      0.282770000000     0.859920000000     0.569160000000     0.0323951  
H270     H      0.200670000000     0.859830000000     0.004030000000     0.0326895  
H271     H      0.199230000000     0.917040000000     0.006410000000     0.034427   
H272     H      0.284200000000     0.917110000000     0.566600000000     0.0343193  
H273     H      0.279060000000     0.732960000000     0.944240000000     0.023317   
H274     H      0.204220000000     0.798510000000     0.944700000000     0.0255908  
H275     H      0.204440000000     0.799150000000     0.879000000000     0.0230399  
H276     H      0.279160000000     0.733470000000     0.878590000000     0.0257306  
H277     H      0.205480000000     0.732240000000     0.628740000000     0.0234873  
H278     H      0.279000000000     0.799240000000     0.628600000000     0.025377   
H279     H      0.278350000000     0.800050000000     0.694310000000     0.0230417  
H280     H      0.204990000000     0.732880000000     0.694370000000     0.025603   
H281     H      0.511300000000     0.615690000000     0.843960000000     0.0375251  
H282     H      0.953900000000     0.614150000000     0.751260000000     0.0371016  
H283     H      0.958550000000     0.670490000000     0.746330000000     0.0360959  
H284     H      0.513240000000     0.672520000000     0.841050000000     0.0350649  
H285     H      0.022680000000     0.863810000000     0.827770000000     0.0370797  
H286     H      0.467480000000     0.861200000000     0.733440000000     0.0355631  
H287     H      0.467270000000     0.918210000000     0.731700000000     0.0392932  
H288     H      0.025230000000     0.920260000000     0.823960000000     0.0385462  
H289     H      0.395140000000     0.770750000000     0.843320000000     0.035817   
H290     H      0.394830000000     0.768050000000     0.730290000000     0.037208   
H291     H      0.338130000000     0.767650000000     0.730380000000     0.0357081  
H292     H      0.338370000000     0.770190000000     0.843410000000     0.0372053  
H293     H      0.088370000000     0.766180000000     0.842860000000     0.0368765  
H294     H      0.088080000000     0.763000000000     0.729860000000     0.0361361  
H295     H      0.144870000000     0.763470000000     0.729780000000     0.0369872  
H296     H      0.145090000000     0.766530000000     0.842790000000     0.0356222  
H297     H      0.463080000000     0.669520000000     0.578670000000     0.0359036  
H298     H      0.016460000000     0.670940000000     0.983010000000     0.0338444  
H299     H      0.015430000000     0.613740000000     0.981410000000     0.0367402  
H300     H      0.459240000000     0.613320000000     0.575070000000     0.0371573  
H301     H      0.450750000000     0.862510000000     0.011370000000     0.032673   
H302     H      0.033300000000     0.859460000000     0.575590000000     0.0345791  
H303     H      0.034080000000     0.916810000000     0.577580000000     0.0348396  
H304     H      0.448610000000     0.919340000000     0.018430000000     0.0355421  
H305     H      0.395320000000     0.767210000000     0.979680000000     0.036183   
H306     H      0.395560000000     0.765000000000     0.592690000000     0.0360502  
H307     H      0.338810000000     0.764370000000     0.592830000000     0.0365901  
H308     H      0.338500000000     0.767110000000     0.979830000000     0.0354459  
H309     H      0.088760000000     0.763080000000     0.593480000000     0.0368595  
H310     H      0.088530000000     0.767100000000     0.980530000000     0.0352584  
H311     H      0.145300000000     0.766510000000     0.980370000000     0.0357423  
H312     H      0.145590000000     0.763350000000     0.593350000000     0.0357972  
H313     H      0.029560000000     0.736650000000     0.944430000000     0.0243006  
H314     H      0.455390000000     0.802930000000     0.944830000000     0.0249323  
H315     H      0.455540000000     0.803340000000     0.879020000000     0.0229415  
H316     H      0.029550000000     0.736870000000     0.878910000000     0.0263544  
H317     H      0.457440000000     0.799270000000     0.628250000000     0.0253241  
H318     H      0.025470000000     0.726780000000     0.629320000000     0.0247661  
H319     H      0.024980000000     0.727180000000     0.695150000000     0.0228899  
H320     H      0.456840000000     0.799580000000     0.693780000000     0.0269183  
H321     H      0.714820000000     0.962140000000     0.439420000000     0.0320834  
H322     H      0.673130000000     0.552900000000     0.444470000000     0.032899   
H323     H      0.670400000000     0.554130000000     0.379740000000     0.0306452  
H324     H      0.709920000000     0.962450000000     0.375830000000     0.0317227  
H325     H      0.768350000000     0.461840000000     0.133310000000     0.0318271  
H326     H      0.811020000000     0.052150000000     0.128500000000     0.0325862  
H327     H      0.813800000000     0.053210000000     0.193230000000     0.0304324  
H328     H      0.773250000000     0.461970000000     0.196890000000     0.0315085  
H329     H      0.411890000000     0.526460000000     0.445190000000     0.0350537  
H330     H      0.980470000000     0.953400000000     0.442650000000     0.0352681  
H331     H      0.977890000000     0.952440000000     0.379020000000     0.032968   
H332     H      0.410060000000     0.526100000000     0.380440000000     0.0332469  
H333     H      0.566580000000     0.006470000000     0.131870000000     0.0315991  
H334     H      0.995280000000     0.576900000000     0.131750000000     0.0304909  
H335     H      0.998340000000     0.580380000000     0.195270000000     0.030797   
H336     H      0.568490000000     0.008860000000     0.196620000000     0.0325192  
H337     H      0.717590000000     0.171720000000     0.237340000000     0.0351675  
H338     H      0.767850000000     0.171650000000     0.335260000000     0.0351107  
H339     H      0.768910000000     0.114970000000     0.334470000000     0.0381487  
H340     H      0.716320000000     0.115090000000     0.238100000000     0.0382233  
H341     H      0.768170000000     0.418570000000     0.334210000000     0.0376017  
H342     H      0.713940000000     0.418750000000     0.239050000000     0.0374791  
H343     H      0.714850000000     0.362020000000     0.238280000000     0.0370705  
H344     H      0.766630000000     0.361900000000     0.335180000000     0.0371829  
H345     H      0.765260000000     0.169620000000     0.486340000000     0.0349479  
H346     H      0.719050000000     0.169640000000     0.086700000000     0.0349119  
H347     H      0.717780000000     0.112940000000     0.085940000000     0.0385046  
H348     H      0.766390000000     0.112900000000     0.487050000000     0.0384085  
H349     H      0.782750000000     0.359930000000     0.069160000000     0.0322329  
H350     H      0.700660000000     0.359820000000     0.504030000000     0.0323492  
H351     H      0.699210000000     0.417030000000     0.506410000000     0.0335794  
H352     H      0.784180000000     0.417110000000     0.066600000000     0.0335955  
H353     H      0.779060000000     0.232950000000     0.444230000000     0.0234139  
H354     H      0.704220000000     0.298510000000     0.444710000000     0.0256383  
H355     H      0.704440000000     0.299140000000     0.379000000000     0.0229806  
H356     H      0.779160000000     0.233460000000     0.378580000000     0.0257764  
H357     H      0.705470000000     0.232240000000     0.128730000000     0.023476   
H358     H      0.778990000000     0.299240000000     0.128600000000     0.0253268  
H359     H      0.778350000000     0.300050000000     0.194310000000     0.0229531  
H360     H      0.704990000000     0.232880000000     0.194370000000     0.0255912  
H361     H      0.011310000000     0.115690000000     0.343960000000     0.0392125  
H362     H      0.453920000000     0.114150000000     0.251230000000     0.036976   
H363     H      0.458560000000     0.170490000000     0.246310000000     0.0362509  
H364     H      0.013260000000     0.172520000000     0.341050000000     0.0345728  
H365     H      0.522660000000     0.363810000000     0.327780000000     0.036743   
H366     H      0.967460000000     0.361200000000     0.233440000000     0.0352934  
H367     H      0.967250000000     0.418210000000     0.231700000000     0.0383952  
H368     H      0.525210000000     0.420260000000     0.323970000000     0.0377788  
H369     H      0.895140000000     0.270740000000     0.343320000000     0.0357655  
H370     H      0.894830000000     0.268040000000     0.230290000000     0.0371769  
H371     H      0.838120000000     0.267630000000     0.230380000000     0.035702   
H372     H      0.838360000000     0.270170000000     0.343410000000     0.0371995  
H373     H      0.588370000000     0.266190000000     0.342860000000     0.0368196  
H374     H      0.588080000000     0.263000000000     0.229860000000     0.0359632  
H375     H      0.644860000000     0.263480000000     0.229780000000     0.0369648  
H376     H      0.645080000000     0.266540000000     0.342790000000     0.0356083  
H377     H      0.963060000000     0.169520000000     0.078650000000     0.0358438  
H378     H      0.516460000000     0.170940000000     0.483010000000     0.0343172  
H379     H      0.515430000000     0.113740000000     0.481420000000     0.0371557  
H380     H      0.959220000000     0.113320000000     0.075050000000     0.0371113  
H381     H      0.950750000000     0.362520000000     0.511380000000     0.0323421  
H382     H      0.533290000000     0.359460000000     0.075580000000     0.0342943  
H383     H      0.534080000000     0.416810000000     0.077570000000     0.0338888  
H384     H      0.948610000000     0.419340000000     0.518450000000     0.0346341  
H385     H      0.895320000000     0.267210000000     0.479680000000     0.0366922  
H386     H      0.895560000000     0.265010000000     0.092690000000     0.0360244  
H387     H      0.838810000000     0.264370000000     0.092820000000     0.036596   
H388     H      0.838500000000     0.267110000000     0.479820000000     0.0359459  
H389     H      0.588750000000     0.263090000000     0.093470000000     0.036752   
H390     H      0.588530000000     0.267090000000     0.480520000000     0.0356963  
H391     H      0.645300000000     0.266500000000     0.480360000000     0.0362241  
H392     H      0.645590000000     0.263350000000     0.093340000000     0.0357485  
H393     H      0.529560000000     0.236640000000     0.444430000000     0.0243425  
H394     H      0.955390000000     0.302940000000     0.444830000000     0.0249487  
H395     H      0.955530000000     0.303330000000     0.379010000000     0.0228627  
H396     H      0.529550000000     0.236860000000     0.378900000000     0.0263494  
H397     H      0.957440000000     0.299260000000     0.128240000000     0.0252305  
H398     H      0.525470000000     0.226780000000     0.129320000000     0.0247206  
H399     H      0.524980000000     0.227190000000     0.195150000000     0.0227887  
H400     H      0.956830000000     0.299570000000     0.193780000000     0.0268061  
H401     H      0.714840000000     0.962150000000     0.939410000000     0.0319408  
H402     H      0.673130000000     0.552890000000     0.944450000000     0.0327697  
H403     H      0.670400000000     0.554120000000     0.879720000000     0.0306443  
H404     H      0.709950000000     0.962450000000     0.875820000000     0.0317096  
H405     H      0.768390000000     0.461840000000     0.633300000000     0.0317832  
H406     H      0.811030000000     0.052160000000     0.628480000000     0.0325929  
H407     H      0.813810000000     0.053220000000     0.693210000000     0.0304132  
H408     H      0.773290000000     0.461980000000     0.696890000000     0.031539   
H409     H      0.411890000000     0.526460000000     0.945190000000     0.0349393  
H410     H      0.980460000000     0.953400000000     0.942650000000     0.0351499  
H411     H      0.977880000000     0.952440000000     0.879020000000     0.0329295  
H412     H      0.410050000000     0.526110000000     0.880440000000     0.0331742  
H413     H      0.566590000000     0.006470000000     0.631870000000     0.0315875  
H414     H      0.995280000000     0.576900000000     0.631760000000     0.0304843  
H415     H      0.998340000000     0.580380000000     0.695270000000     0.0308043  
H416     H      0.568490000000     0.008860000000     0.696620000000     0.0325418  
H417     H      0.717590000000     0.171720000000     0.737330000000     0.035141   
H418     H      0.767850000000     0.171650000000     0.835260000000     0.0350741  
H419     H      0.768920000000     0.114970000000     0.834460000000     0.0381276  
H420     H      0.716340000000     0.115090000000     0.738100000000     0.0382608  
H421     H      0.768190000000     0.418570000000     0.834200000000     0.0375806  
H422     H      0.713960000000     0.418750000000     0.739030000000     0.0374559  
H423     H      0.714860000000     0.362020000000     0.738280000000     0.0370955  
H424     H      0.766640000000     0.361900000000     0.835170000000     0.0371662  
H425     H      0.765260000000     0.169620000000     0.986350000000     0.034399   
H426     H      0.719060000000     0.169630000000     0.586700000000     0.0349113  
H427     H      0.717790000000     0.112940000000     0.585950000000     0.0384745  
H428     H      0.766400000000     0.112910000000     0.987050000000     0.0378238  
H429     H      0.782760000000     0.359920000000     0.569160000000     0.032201   
H430     H      0.700660000000     0.359820000000     0.004020000000     0.0324616  
H431     H      0.699200000000     0.417030000000     0.006410000000     0.0336836  
H432     H      0.784180000000     0.417110000000     0.566600000000     0.033606   
H433     H      0.779050000000     0.232960000000     0.944230000000     0.0233501  
H434     H      0.704220000000     0.298510000000     0.944700000000     0.0255375  
H435     H      0.704440000000     0.299150000000     0.879000000000     0.0229293  
H436     H      0.779160000000     0.233460000000     0.878580000000     0.0257691  
H437     H      0.705470000000     0.232240000000     0.628730000000     0.0234938  
H438     H      0.779000000000     0.299230000000     0.628600000000     0.0253373  
H439     H      0.778350000000     0.300050000000     0.694310000000     0.0229601  
H440     H      0.704990000000     0.232880000000     0.694370000000     0.0256073  
H441     H      0.011310000000     0.115690000000     0.843960000000     0.0391676  
H442     H      0.453920000000     0.114150000000     0.751230000000     0.0369637  
H443     H      0.458560000000     0.170490000000     0.746310000000     0.0362615  
H444     H      0.013260000000     0.172520000000     0.841050000000     0.0345549  
H445     H      0.522660000000     0.363810000000     0.827780000000     0.0367225  
H446     H      0.967460000000     0.361200000000     0.733440000000     0.0352968  
H447     H      0.967250000000     0.418210000000     0.731700000000     0.0384041  
H448     H      0.525210000000     0.420260000000     0.823980000000     0.0377447  
H449     H      0.895140000000     0.270740000000     0.843320000000     0.0357558  
H450     H      0.894830000000     0.268040000000     0.730290000000     0.0371968  
H451     H      0.838120000000     0.267630000000     0.730380000000     0.0356844  
H452     H      0.838360000000     0.270170000000     0.843410000000     0.0371691  
H453     H      0.588370000000     0.266190000000     0.842860000000     0.036799   
H454     H      0.588080000000     0.263000000000     0.729860000000     0.0359699  
H455     H      0.644870000000     0.263480000000     0.729780000000     0.0369765  
H456     H      0.645080000000     0.266540000000     0.842790000000     0.0355716  
H457     H      0.963060000000     0.169520000000     0.578650000000     0.0358336  
H458     H      0.516460000000     0.170940000000     0.983010000000     0.0337479  
H459     H      0.515430000000     0.113740000000     0.981420000000     0.0366035  
H460     H      0.959220000000     0.113320000000     0.575050000000     0.0370994  
H461     H      0.950740000000     0.362520000000     0.011380000000     0.0324571  
H462     H      0.533300000000     0.359460000000     0.575580000000     0.0342699  
H463     H      0.534080000000     0.416810000000     0.577570000000     0.0338661  
H464     H      0.948610000000     0.419340000000     0.018450000000     0.03473    
H465     H      0.895320000000     0.267210000000     0.979680000000     0.0361446  
H466     H      0.895560000000     0.265010000000     0.592690000000     0.0360239  
H467     H      0.838810000000     0.264370000000     0.592820000000     0.0365851  
H468     H      0.838500000000     0.267120000000     0.979830000000     0.0354245  
H469     H      0.588750000000     0.263080000000     0.593480000000     0.0367164  
H470     H      0.588520000000     0.267090000000     0.980530000000     0.035159   
H471     H      0.645290000000     0.266500000000     0.980360000000     0.0356949  
H472     H      0.645590000000     0.263350000000     0.593340000000     0.0357796  
H473     H      0.529560000000     0.236640000000     0.944420000000     0.0242824  
H474     H      0.955390000000     0.302930000000     0.944830000000     0.0248405  
H475     H      0.955530000000     0.303330000000     0.879010000000     0.022837   
H476     H      0.529550000000     0.236860000000     0.878900000000     0.0263197  
H477     H      0.957440000000     0.299260000000     0.628240000000     0.0252377  
H478     H      0.525470000000     0.226780000000     0.629320000000     0.0247222  
H479     H      0.524980000000     0.227190000000     0.695150000000     0.0227732  
H480     H      0.956830000000     0.299570000000     0.693780000000     0.02681    
H481     H      0.714760000000     0.462120000000     0.439440000000     0.0318316  
H482     H      0.673130000000     0.052900000000     0.444490000000     0.0328201  
H483     H      0.670340000000     0.054120000000     0.379750000000     0.0306132  
H484     H      0.709930000000     0.462440000000     0.375830000000     0.0314969  
H485     H      0.768410000000     0.961820000000     0.133290000000     0.0320719  
H486     H      0.811020000000     0.552150000000     0.128470000000     0.0326536  
H487     H      0.813850000000     0.553200000000     0.193210000000     0.0305079  
H488     H      0.773250000000     0.961960000000     0.196890000000     0.0317277  
H489     H      0.411880000000     0.026450000000     0.445180000000     0.0357049  
H490     H      0.980460000000     0.453400000000     0.442660000000     0.0340456  
H491     H      0.977870000000     0.452430000000     0.379020000000     0.0318408  
H492     H      0.410060000000     0.026100000000     0.380430000000     0.0338468  
H493     H      0.566590000000     0.506470000000     0.131880000000     0.0328578  
H494     H      0.995280000000     0.076910000000     0.131750000000     0.0304859  
H495     H      0.998360000000     0.080390000000     0.195270000000     0.0308115  
H496     H      0.568490000000     0.508860000000     0.196630000000     0.0337239  
H497     H      0.717620000000     0.671710000000     0.237330000000     0.0351452  
H498     H      0.767880000000     0.671650000000     0.335260000000     0.0350956  
H499     H      0.768950000000     0.614970000000     0.334460000000     0.0381929  
H500     H      0.716360000000     0.615090000000     0.238090000000     0.0382762  
H501     H      0.768150000000     0.918580000000     0.334220000000     0.0383207  
H502     H      0.713910000000     0.918750000000     0.239060000000     0.0381961  
H503     H      0.714830000000     0.862010000000     0.238290000000     0.0373021  
H504     H      0.766620000000     0.861900000000     0.335180000000     0.0373752  
H505     H      0.765240000000     0.669620000000     0.486340000000     0.0349386  
H506     H      0.719030000000     0.669640000000     0.086690000000     0.0348961  
H507     H      0.717740000000     0.612940000000     0.085930000000     0.0385679  
H508     H      0.766360000000     0.612900000000     0.487040000000     0.0384391  
H509     H      0.782770000000     0.859920000000     0.069160000000     0.0323878  
H510     H      0.700670000000     0.859830000000     0.504030000000     0.0325435  
H511     H      0.699230000000     0.917030000000     0.506420000000     0.0342902  
H512     H      0.784200000000     0.917110000000     0.066600000000     0.0343295  
H513     H      0.779060000000     0.732960000000     0.444240000000     0.0233943  
H514     H      0.704220000000     0.798510000000     0.444710000000     0.0256914  
H515     H      0.704440000000     0.799140000000     0.379000000000     0.0230642  
H516     H      0.779160000000     0.733460000000     0.378590000000     0.0257762  
H517     H      0.705480000000     0.732240000000     0.128740000000     0.0234576  
H518     H      0.779000000000     0.799240000000     0.128600000000     0.0253743  
H519     H      0.778350000000     0.800050000000     0.194310000000     0.0230526  
H520     H      0.704990000000     0.732880000000     0.194370000000     0.0256039  
H521     H      0.011310000000     0.615690000000     0.343960000000     0.0393034  
H522     H      0.453910000000     0.614150000000     0.251240000000     0.0370329  
H523     H      0.458550000000     0.670490000000     0.246310000000     0.0362244  
H524     H      0.013260000000     0.672520000000     0.341050000000     0.0345532  
H525     H      0.522670000000     0.863810000000     0.327780000000     0.0369478  
H526     H      0.967470000000     0.861200000000     0.233440000000     0.0355174  
H527     H      0.967260000000     0.918210000000     0.231700000000     0.039237   
H528     H      0.525220000000     0.920260000000     0.323970000000     0.0385101  
H529     H      0.895140000000     0.770750000000     0.343320000000     0.035841   
H530     H      0.894830000000     0.768050000000     0.230290000000     0.0371996  
H531     H      0.838130000000     0.767640000000     0.230380000000     0.035703   
H532     H      0.838360000000     0.770190000000     0.343410000000     0.0372174  
H533     H      0.588370000000     0.766180000000     0.342860000000     0.0368258  
H534     H      0.588080000000     0.762990000000     0.229860000000     0.0360361  
H535     H      0.644870000000     0.763470000000     0.229780000000     0.0369765  
H536     H      0.645090000000     0.766530000000     0.342790000000     0.0356331  
H537     H      0.963070000000     0.669520000000     0.078660000000     0.0358317  
H538     H      0.516460000000     0.670940000000     0.483020000000     0.0343063  
H539     H      0.515440000000     0.613740000000     0.481430000000     0.03725    
H540     H      0.959230000000     0.613320000000     0.075050000000     0.0371563  
H541     H      0.950740000000     0.862510000000     0.511390000000     0.0325481  
H542     H      0.533290000000     0.859460000000     0.075590000000     0.034539   
H543     H      0.534080000000     0.916810000000     0.077570000000     0.0348232  
H544     H      0.948610000000     0.919340000000     0.518450000000     0.0354716  
H545     H      0.895320000000     0.767200000000     0.479680000000     0.0367089  
H546     H      0.895560000000     0.765000000000     0.092690000000     0.0360444  
H547     H      0.838810000000     0.764360000000     0.092830000000     0.0365904  
H548     H      0.838500000000     0.767110000000     0.479830000000     0.0360015  
H549     H      0.588750000000     0.763090000000     0.093480000000     0.0367833  
H550     H      0.588530000000     0.767090000000     0.480530000000     0.0357202  
H551     H      0.645300000000     0.766510000000     0.480370000000     0.0362689  
H552     H      0.645590000000     0.763360000000     0.093350000000     0.0357758  
H553     H      0.529560000000     0.736640000000     0.444430000000     0.024358   
H554     H      0.955390000000     0.802940000000     0.444830000000     0.0250225  
H555     H      0.955540000000     0.803340000000     0.379020000000     0.0229639  
H556     H      0.529550000000     0.736860000000     0.378900000000     0.0263386  
H557     H      0.957440000000     0.799260000000     0.128250000000     0.025312   
H558     H      0.525470000000     0.726780000000     0.129320000000     0.024686   
H559     H      0.524980000000     0.727190000000     0.195150000000     0.0227698  
H560     H      0.956830000000     0.799570000000     0.193780000000     0.0269185  
H561     H      0.714780000000     0.462120000000     0.939430000000     0.0316992  
H562     H      0.673130000000     0.052890000000     0.944480000000     0.0327096  
H563     H      0.670350000000     0.054110000000     0.879740000000     0.0305732  
H564     H      0.709960000000     0.462440000000     0.875820000000     0.0315112  
H565     H      0.768440000000     0.961820000000     0.633290000000     0.0320619  
H566     H      0.811030000000     0.552160000000     0.628450000000     0.0326579  
H567     H      0.813870000000     0.553220000000     0.693200000000     0.0304833  
H568     H      0.773280000000     0.961960000000     0.696890000000     0.0317406  
H569     H      0.411880000000     0.026450000000     0.945180000000     0.0355504  
H570     H      0.980460000000     0.453400000000     0.942660000000     0.0339509  
H571     H      0.977870000000     0.452430000000     0.879020000000     0.031791   
H572     H      0.410060000000     0.026100000000     0.880430000000     0.0338404  
H573     H      0.566590000000     0.506470000000     0.631880000000     0.0328527  
H574     H      0.995280000000     0.076910000000     0.631750000000     0.0304795  
H575     H      0.998360000000     0.080390000000     0.695270000000     0.0308195  
H576     H      0.568490000000     0.508860000000     0.696630000000     0.0337156  
H577     H      0.717630000000     0.671710000000     0.737330000000     0.0351489  
H578     H      0.767880000000     0.671650000000     0.835260000000     0.0350582  
H579     H      0.768960000000     0.614970000000     0.834450000000     0.038172   
H580     H      0.716380000000     0.615090000000     0.738090000000     0.0383131  
H581     H      0.768160000000     0.918580000000     0.834210000000     0.0382949  
H582     H      0.713930000000     0.918750000000     0.739050000000     0.0382188  
H583     H      0.714840000000     0.862010000000     0.738280000000     0.0372709  
H584     H      0.766630000000     0.861900000000     0.835180000000     0.0373742  
H585     H      0.765240000000     0.669620000000     0.986340000000     0.0343562  
H586     H      0.719040000000     0.669640000000     0.586700000000     0.0348965  
H587     H      0.717750000000     0.612940000000     0.585940000000     0.0385381  
H588     H      0.766360000000     0.612910000000     0.987040000000     0.0379057  
H589     H      0.782770000000     0.859920000000     0.569160000000     0.0323814  
H590     H      0.700670000000     0.859830000000     0.004030000000     0.0326713  
H591     H      0.699220000000     0.917030000000     0.006410000000     0.0343951  
H592     H      0.784200000000     0.917110000000     0.566600000000     0.0343202  
H593     H      0.779060000000     0.732960000000     0.944240000000     0.023311   
H594     H      0.704230000000     0.798510000000     0.944710000000     0.0256033  
H595     H      0.704440000000     0.799140000000     0.879000000000     0.0230166  
H596     H      0.779160000000     0.733460000000     0.878590000000     0.0257457  
H597     H      0.705480000000     0.732230000000     0.628740000000     0.0234616  
H598     H      0.779000000000     0.799240000000     0.628600000000     0.0253818  
H599     H      0.778350000000     0.800050000000     0.694310000000     0.0230495  
H600     H      0.704990000000     0.732870000000     0.694370000000     0.0255995  
H601     H      0.011310000000     0.615690000000     0.843960000000     0.0392985  
H602     H      0.453910000000     0.614150000000     0.751240000000     0.0370213  
H603     H      0.458550000000     0.670490000000     0.746310000000     0.0362545  
H604     H      0.013260000000     0.672520000000     0.841050000000     0.0345178  
H605     H      0.522670000000     0.863810000000     0.827780000000     0.0369263  
H606     H      0.967470000000     0.861200000000     0.733440000000     0.0355166  
H607     H      0.967260000000     0.918210000000     0.731700000000     0.0392403  
H608     H      0.525220000000     0.920260000000     0.823980000000     0.0384772  
H609     H      0.895140000000     0.770750000000     0.843320000000     0.0358174  
H610     H      0.894830000000     0.768050000000     0.730290000000     0.0371751  
H611     H      0.838130000000     0.767640000000     0.730380000000     0.0357074  
H612     H      0.838370000000     0.770190000000     0.843410000000     0.0371808  
H613     H      0.588370000000     0.766180000000     0.842860000000     0.0368043  
H614     H      0.588080000000     0.762990000000     0.729860000000     0.0360444  
H615     H      0.644870000000     0.763470000000     0.729780000000     0.0369692  
H616     H      0.645090000000     0.766530000000     0.842790000000     0.0356087  
H617     H      0.963070000000     0.669520000000     0.578660000000     0.0358063  
H618     H      0.516460000000     0.670940000000     0.983020000000     0.0337471  
H619     H      0.515440000000     0.613740000000     0.981430000000     0.0366837  
H620     H      0.959230000000     0.613320000000     0.575050000000     0.0371501  
H621     H      0.950740000000     0.862510000000     0.011390000000     0.0326621  
H622     H      0.533290000000     0.859460000000     0.575580000000     0.0345219  
H623     H      0.534080000000     0.916810000000     0.577570000000     0.0348102  
H624     H      0.948600000000     0.919340000000     0.018450000000     0.0355779  
H625     H      0.895320000000     0.767210000000     0.979680000000     0.0361664  
H626     H      0.895560000000     0.765000000000     0.592690000000     0.03604    
H627     H      0.838810000000     0.764360000000     0.592830000000     0.0365872  
H628     H      0.838500000000     0.767110000000     0.979830000000     0.0354445  
H629     H      0.588750000000     0.763090000000     0.593480000000     0.0367829  
H630     H      0.588530000000     0.767100000000     0.980530000000     0.0351789  
H631     H      0.645300000000     0.766510000000     0.980370000000     0.035723   
H632     H      0.645590000000     0.763350000000     0.593350000000     0.0357766  
H633     H      0.529560000000     0.736640000000     0.944430000000     0.0242521  
H634     H      0.955390000000     0.802940000000     0.944830000000     0.0249227  
H635     H      0.955540000000     0.803340000000     0.879020000000     0.0229337  
H636     H      0.529550000000     0.736860000000     0.878910000000     0.0263414  
H637     H      0.957440000000     0.799260000000     0.628250000000     0.0253371  
H638     H      0.525470000000     0.726780000000     0.629320000000     0.0246914  
H639     H      0.524980000000     0.727190000000     0.695150000000     0.0227883  
H640     H      0.956840000000     0.799570000000     0.693780000000     0.0269141  
N1       N      0.195790000000     0.508210000000     0.445490000000    -0.179228   
N2       N      0.191300000000     0.008930000000     0.373940000000    -0.182057   
N3       N      0.287860000000     0.007720000000     0.127360000000    -0.182575   
N4       N      0.292390000000     0.508240000000     0.198900000000    -0.178737   
N5       N      0.448400000000     0.491920000000     0.447310000000    -0.179821   
N6       N      0.445740000000     0.990960000000     0.376140000000    -0.172998   
N7       N      0.529010000000     0.039720000000     0.128570000000    -0.180192   
N8       N      0.531700000000     0.542970000000     0.199620000000    -0.179577   
N9       N      0.242700000000     0.175810000000     0.286320000000    -0.192369   
N10      N      0.242570000000     0.110910000000     0.286310000000    -0.176483   
N11      N      0.241120000000     0.422760000000     0.286600000000    -0.176665   
N12      N      0.240730000000     0.357830000000     0.286720000000    -0.191252   
N13      N      0.242160000000     0.173870000000     0.036520000000    -0.190249   
N14      N      0.242080000000     0.108700000000     0.036490000000    -0.174832   
N15      N      0.241710000000     0.356100000000     0.536590000000    -0.191658   
N16      N      0.241700000000     0.420760000000     0.536490000000    -0.17683    
N17      N      0.241660000000     0.265710000000     0.448310000000    -0.240299   
N18      N      0.241760000000     0.266300000000     0.374950000000    -0.241739   
N19      N      0.242250000000     0.265700000000     0.124830000000    -0.240365   
N20      N      0.241650000000     0.266500000000     0.198180000000    -0.241629   
N21      N      0.482420000000     0.110680000000     0.297910000000    -0.174893   
N22      N      0.986430000000     0.175690000000     0.293160000000    -0.190406   
N23      N      0.494740000000     0.358300000000     0.281020000000    -0.189212   
N24      N      0.496280000000     0.423490000000     0.277590000000    -0.174737   
N25      N      0.399470000000     0.269260000000     0.286850000000    -0.189136   
N26      N      0.333750000000     0.268700000000     0.286870000000    -0.189649   
N27      N      0.083720000000     0.264720000000     0.286310000000    -0.18928    
N28      N      0.149470000000     0.265200000000     0.286310000000    -0.189431   
N29      N      0.990060000000     0.174470000000     0.031130000000    -0.189153   
N30      N      0.987020000000     0.109240000000     0.027860000000    -0.17472    
N31      N      0.492140000000     0.357100000000     0.543020000000    -0.189414   
N32      N      0.491140000000     0.421880000000     0.548680000000    -0.175656   
N33      N      0.399940000000     0.266080000000     0.536180000000    -0.188633   
N34      N      0.334160000000     0.265660000000     0.036320000000    -0.188688   
N35      N      0.084170000000     0.265140000000     0.037010000000    -0.188519   
N36      N      0.149910000000     0.264930000000     0.036860000000    -0.188989   
N37      N      0.492560000000     0.269840000000     0.448490000000    -0.238439   
N38      N      0.992570000000     0.270140000000     0.375070000000    -0.240366   
N39      N      0.991410000000     0.262950000000     0.124920000000    -0.23985    
N40      N      0.490900000000     0.263430000000     0.198350000000    -0.239452   
N41      N      0.195810000000     0.508200000000     0.945470000000    -0.179252   
N42      N      0.191320000000     0.008930000000     0.873930000000    -0.182155   
N43      N      0.287880000000     0.007720000000     0.627350000000    -0.182546   
N44      N      0.292420000000     0.508250000000     0.698890000000    -0.178825   
N45      N      0.448390000000     0.491920000000     0.947310000000    -0.179692   
N46      N      0.445730000000     0.990960000000     0.876140000000    -0.172891   
N47      N      0.529010000000     0.039720000000     0.628570000000    -0.180188   
N48      N      0.531700000000     0.542970000000     0.699620000000    -0.179575   
N49      N      0.242710000000     0.175810000000     0.786320000000    -0.192442   
N50      N      0.242580000000     0.110910000000     0.786310000000    -0.176448   
N51      N      0.241140000000     0.422760000000     0.786580000000    -0.17671    
N52      N      0.240740000000     0.357830000000     0.786710000000    -0.191245   
N53      N      0.242160000000     0.173870000000     0.536520000000    -0.19023    
N54      N      0.242080000000     0.108690000000     0.536490000000    -0.174832   
N55      N      0.241710000000     0.356100000000     0.036590000000    -0.191607   
N56      N      0.241700000000     0.420760000000     0.036480000000    -0.176732   
N57      N      0.241660000000     0.265710000000     0.948310000000    -0.240162   
N58      N      0.241760000000     0.266300000000     0.874950000000    -0.24158    
N59      N      0.242250000000     0.265700000000     0.624830000000    -0.240394   
N60      N      0.241650000000     0.266500000000     0.698180000000    -0.241605   
N61      N      0.482420000000     0.110680000000     0.797910000000    -0.174904   
N62      N      0.986430000000     0.175690000000     0.793160000000    -0.190432   
N63      N      0.494740000000     0.358300000000     0.781020000000    -0.189209   
N64      N      0.496280000000     0.423490000000     0.777590000000    -0.174779   
N65      N      0.399480000000     0.269260000000     0.786850000000    -0.189145   
N66      N      0.333750000000     0.268700000000     0.786860000000    -0.189612   
N67      N      0.083730000000     0.264720000000     0.786310000000    -0.189143   
N68      N      0.149470000000     0.265200000000     0.786310000000    -0.189433   
N69      N      0.990060000000     0.174470000000     0.531130000000    -0.189125   
N70      N      0.987020000000     0.109240000000     0.527860000000    -0.174674   
N71      N      0.492140000000     0.357100000000     0.043020000000    -0.189359   
N72      N      0.491130000000     0.421880000000     0.048680000000    -0.175632   
N73      N      0.399940000000     0.266080000000     0.036180000000    -0.188665   
N74      N      0.334160000000     0.265660000000     0.536320000000    -0.188625   
N75      N      0.084170000000     0.265140000000     0.537010000000    -0.188488   
N76      N      0.149910000000     0.264930000000     0.536850000000    -0.189009   
N77      N      0.492560000000     0.269840000000     0.948490000000    -0.238244   
N78      N      0.992570000000     0.270140000000     0.875070000000    -0.240343   
N79      N      0.991410000000     0.262950000000     0.624920000000    -0.239808   
N80      N      0.490900000000     0.263430000000     0.698350000000    -0.239467   
N81      N      0.195820000000     0.008220000000     0.445490000000    -0.182478   
N82      N      0.191340000000     0.508930000000     0.373930000000    -0.178854   
N83      N      0.287830000000     0.507730000000     0.127350000000    -0.179285   
N84      N      0.292350000000     0.008240000000     0.198920000000    -0.182085   
N85      N      0.448390000000     0.991920000000     0.447310000000    -0.172866   
N86      N      0.445730000000     0.490970000000     0.376140000000    -0.179821   
N87      N      0.529010000000     0.539720000000     0.128570000000    -0.180159   
N88      N      0.531710000000     0.042970000000     0.199620000000    -0.179634   
N89      N      0.242730000000     0.675810000000     0.286320000000    -0.192413   
N90      N      0.242610000000     0.610910000000     0.286300000000    -0.176549   
N91      N      0.241090000000     0.922760000000     0.286610000000    -0.176245   
N92      N      0.240720000000     0.857830000000     0.286730000000    -0.191236   
N93      N      0.242150000000     0.673870000000     0.036520000000    -0.19028    
N94      N      0.242040000000     0.608700000000     0.036480000000    -0.174881   
N95      N      0.241720000000     0.856100000000     0.536600000000    -0.191603   
N96      N      0.241720000000     0.920760000000     0.536490000000    -0.17643    
N97      N      0.241660000000     0.765710000000     0.448310000000    -0.240338   
N98      N      0.241770000000     0.766300000000     0.374950000000    -0.241645   
N99      N      0.242250000000     0.765700000000     0.124830000000    -0.2404     
N100     N      0.241650000000     0.766500000000     0.198180000000    -0.241613   
N101     N      0.482410000000     0.610680000000     0.297910000000    -0.174902   
N102     N      0.986430000000     0.675690000000     0.293160000000    -0.190452   
N103     N      0.494750000000     0.858300000000     0.281020000000    -0.189178   
N104     N      0.496290000000     0.923490000000     0.277590000000    -0.17425    
N105     N      0.399480000000     0.769270000000     0.286850000000    -0.189093   
N106     N      0.333760000000     0.768710000000     0.286870000000    -0.189493   
N107     N      0.083730000000     0.764710000000     0.286320000000    -0.189176   
N108     N      0.149470000000     0.765190000000     0.286310000000    -0.189384   
N109     N      0.990070000000     0.674470000000     0.031140000000    -0.189131   
N110     N      0.987030000000     0.609240000000     0.027860000000    -0.174783   
N111     N      0.492140000000     0.857100000000     0.543030000000    -0.189368   
N112     N      0.491130000000     0.921880000000     0.548680000000    -0.175198   
N113     N      0.399940000000     0.766070000000     0.536180000000    -0.188628   
N114     N      0.334160000000     0.765660000000     0.036320000000    -0.188731   
N115     N      0.084170000000     0.765150000000     0.037010000000    -0.188552   
N116     N      0.149910000000     0.764940000000     0.036860000000    -0.188943   
N117     N      0.492560000000     0.769840000000     0.448500000000    -0.238507   
N118     N      0.992570000000     0.770140000000     0.375070000000    -0.240335   
N119     N      0.991410000000     0.762950000000     0.124920000000    -0.239871   
N120     N      0.490900000000     0.763430000000     0.198350000000    -0.239433   
N121     N      0.195830000000     0.008220000000     0.945480000000    -0.182383   
N122     N      0.191360000000     0.508930000000     0.873910000000    -0.178812   
N123     N      0.287850000000     0.507740000000     0.627340000000    -0.17931    
N124     N      0.292370000000     0.008240000000     0.698910000000    -0.182135   
N125     N      0.448390000000     0.991920000000     0.947310000000    -0.172881   
N126     N      0.445720000000     0.490970000000     0.876140000000    -0.179839   
N127     N      0.529010000000     0.539720000000     0.628570000000    -0.180166   
N128     N      0.531710000000     0.042970000000     0.699620000000    -0.179579   
N129     N      0.242740000000     0.675810000000     0.786320000000    -0.192431   
N130     N      0.242630000000     0.610910000000     0.786290000000    -0.17653    
N131     N      0.241110000000     0.922760000000     0.786600000000    -0.176244   
N132     N      0.240730000000     0.857830000000     0.786720000000    -0.191232   
N133     N      0.242150000000     0.673870000000     0.536520000000    -0.190248   
N134     N      0.242050000000     0.608690000000     0.536480000000    -0.174916   
N135     N      0.241720000000     0.856100000000     0.036600000000    -0.191575   
N136     N      0.241720000000     0.920760000000     0.036490000000    -0.176414   
N137     N      0.241660000000     0.765720000000     0.948310000000    -0.240164   
N138     N      0.241770000000     0.766300000000     0.874950000000    -0.241702   
N139     N      0.242260000000     0.765700000000     0.624830000000    -0.240364   
N140     N      0.241660000000     0.766500000000     0.698180000000    -0.241616   
N141     N      0.482410000000     0.610680000000     0.797910000000    -0.17497    
N142     N      0.986430000000     0.675690000000     0.793160000000    -0.190459   
N143     N      0.494750000000     0.858300000000     0.781020000000    -0.189172   
N144     N      0.496290000000     0.923490000000     0.777590000000    -0.174252   
N145     N      0.399480000000     0.769270000000     0.786850000000    -0.18907    
N146     N      0.333760000000     0.768710000000     0.786870000000    -0.189498   
N147     N      0.083730000000     0.764710000000     0.786320000000    -0.189174   
N148     N      0.149470000000     0.765190000000     0.786310000000    -0.189383   
N149     N      0.990070000000     0.674470000000     0.531140000000    -0.189207   
N150     N      0.987030000000     0.609240000000     0.527860000000    -0.17473    
N151     N      0.492140000000     0.857100000000     0.043030000000    -0.189338   
N152     N      0.491130000000     0.921880000000     0.048680000000    -0.175185   
N153     N      0.399940000000     0.766070000000     0.036180000000    -0.18866    
N154     N      0.334160000000     0.765660000000     0.536320000000    -0.188685   
N155     N      0.084170000000     0.765150000000     0.537010000000    -0.188522   
N156     N      0.149920000000     0.764940000000     0.536860000000    -0.189      
N157     N      0.492560000000     0.769840000000     0.948500000000    -0.238362   
N158     N      0.992570000000     0.770140000000     0.875070000000    -0.240344   
N159     N      0.991420000000     0.762950000000     0.624920000000    -0.239843   
N160     N      0.490900000000     0.763430000000     0.698350000000    -0.239316   
N161     N      0.695790000000     0.508200000000     0.445490000000    -0.179221   
N162     N      0.691300000000     0.008930000000     0.373940000000    -0.182123   
N163     N      0.787860000000     0.007720000000     0.127360000000    -0.182586   
N164     N      0.792390000000     0.508230000000     0.198900000000    -0.178725   
N165     N      0.948410000000     0.491890000000     0.447310000000    -0.179864   
N166     N      0.945770000000     0.990940000000     0.376150000000    -0.173096   
N167     N      0.028990000000     0.039760000000     0.128570000000    -0.180477   
N168     N      0.031660000000     0.543000000000     0.199620000000    -0.179973   
N169     N      0.742700000000     0.175810000000     0.286320000000    -0.19244    
N170     N      0.742570000000     0.110910000000     0.286310000000    -0.176458   
N171     N      0.741120000000     0.422760000000     0.286600000000    -0.176666   
N172     N      0.740730000000     0.357820000000     0.286720000000    -0.191334   
N173     N      0.742160000000     0.173870000000     0.036520000000    -0.190262   
N174     N      0.742080000000     0.108690000000     0.036490000000    -0.174923   
N175     N      0.741710000000     0.356090000000     0.536590000000    -0.191739   
N176     N      0.741700000000     0.420760000000     0.536490000000    -0.176804   
N177     N      0.741660000000     0.265710000000     0.448310000000    -0.240292   
N178     N      0.741760000000     0.266300000000     0.374950000000    -0.241684   
N179     N      0.742250000000     0.265690000000     0.124830000000    -0.240389   
N180     N      0.741650000000     0.266500000000     0.198180000000    -0.241641   
N181     N      0.982410000000     0.110680000000     0.297920000000    -0.174133   
N182     N      0.486430000000     0.175690000000     0.293150000000    -0.189314   
N183     N      0.994740000000     0.358300000000     0.281010000000    -0.189841   
N184     N      0.996280000000     0.423490000000     0.277580000000    -0.175187   
N185     N      0.899480000000     0.269260000000     0.286850000000    -0.189199   
N186     N      0.833750000000     0.268700000000     0.286870000000    -0.189579   
N187     N      0.583720000000     0.264720000000     0.286310000000    -0.189364   
N188     N      0.649470000000     0.265200000000     0.286310000000    -0.189438   
N189     N      0.490070000000     0.174470000000     0.031140000000    -0.188482   
N190     N      0.487030000000     0.109240000000     0.027870000000    -0.174271   
N191     N      0.992140000000     0.357100000000     0.543030000000    -0.19005    
N192     N      0.991130000000     0.421880000000     0.548690000000    -0.17606    
N193     N      0.899940000000     0.266080000000     0.536180000000    -0.188611   
N194     N      0.834160000000     0.265660000000     0.036320000000    -0.188646   
N195     N      0.584160000000     0.265140000000     0.037010000000    -0.188701   
N196     N      0.649910000000     0.264930000000     0.036860000000    -0.188975   
N197     N      0.992560000000     0.269850000000     0.448490000000    -0.238979   
N198     N      0.492570000000     0.270140000000     0.375070000000    -0.239798   
N199     N      0.491410000000     0.262960000000     0.124920000000    -0.239296   
N200     N      0.990900000000     0.263430000000     0.198350000000    -0.239989   
N201     N      0.695810000000     0.508200000000     0.945470000000    -0.179169   
N202     N      0.691320000000     0.008920000000     0.873930000000    -0.182106   
N203     N      0.787880000000     0.007720000000     0.627350000000    -0.182533   
N204     N      0.792420000000     0.508240000000     0.698900000000    -0.178833   
N205     N      0.948400000000     0.491890000000     0.947310000000    -0.179727   
N206     N      0.945770000000     0.990940000000     0.876150000000    -0.173086   
N207     N      0.028990000000     0.039760000000     0.628570000000    -0.180543   
N208     N      0.031660000000     0.543000000000     0.699620000000    -0.179906   
N209     N      0.742710000000     0.175810000000     0.786320000000    -0.192513   
N210     N      0.742580000000     0.110910000000     0.786310000000    -0.176434   
N211     N      0.741140000000     0.422760000000     0.786580000000    -0.176693   
N212     N      0.740740000000     0.357820000000     0.786720000000    -0.19132    
N213     N      0.742160000000     0.173860000000     0.536520000000    -0.190147   
N214     N      0.742080000000     0.108690000000     0.536500000000    -0.174867   
N215     N      0.741710000000     0.356100000000     0.036590000000    -0.191596   
N216     N      0.741700000000     0.420760000000     0.036480000000    -0.176847   
N217     N      0.741660000000     0.265710000000     0.948310000000    -0.240097   
N218     N      0.741760000000     0.266300000000     0.874950000000    -0.241589   
N219     N      0.742250000000     0.265690000000     0.624830000000    -0.240326   
N220     N      0.741650000000     0.266500000000     0.698180000000    -0.241599   
N221     N      0.982410000000     0.110680000000     0.797930000000    -0.174129   
N222     N      0.486430000000     0.175690000000     0.793150000000    -0.189332   
N223     N      0.994740000000     0.358300000000     0.781010000000    -0.189813   
N224     N      0.996280000000     0.423490000000     0.777580000000    -0.175136   
N225     N      0.899480000000     0.269260000000     0.786850000000    -0.189116   
N226     N      0.833750000000     0.268700000000     0.786860000000    -0.189604   
N227     N      0.583730000000     0.264720000000     0.786310000000    -0.189233   
N228     N      0.649470000000     0.265200000000     0.786310000000    -0.189445   
N229     N      0.490070000000     0.174470000000     0.531140000000    -0.188482   
N230     N      0.487030000000     0.109240000000     0.527870000000    -0.174251   
N231     N      0.992140000000     0.357100000000     0.043030000000    -0.189982   
N232     N      0.991130000000     0.421880000000     0.048690000000    -0.176085   
N233     N      0.899940000000     0.266080000000     0.036180000000    -0.188648   
N234     N      0.834160000000     0.265660000000     0.536320000000    -0.188692   
N235     N      0.584170000000     0.265140000000     0.537010000000    -0.188611   
N236     N      0.649910000000     0.264930000000     0.536850000000    -0.188917   
N237     N      0.992560000000     0.269850000000     0.948490000000    -0.238826   
N238     N      0.492570000000     0.270140000000     0.875070000000    -0.239809   
N239     N      0.491420000000     0.262960000000     0.624920000000    -0.239252   
N240     N      0.990900000000     0.263430000000     0.698350000000    -0.239979   
N241     N      0.695820000000     0.008220000000     0.445490000000    -0.182478   
N242     N      0.691340000000     0.508930000000     0.373930000000    -0.17887    
N243     N      0.787830000000     0.507730000000     0.127350000000    -0.179268   
N244     N      0.792350000000     0.008230000000     0.198920000000    -0.182076   
N245     N      0.948400000000     0.991890000000     0.447310000000    -0.172949   
N246     N      0.945760000000     0.490940000000     0.376150000000    -0.179839   
N247     N      0.028990000000     0.539760000000     0.128570000000    -0.180457   
N248     N      0.031670000000     0.043000000000     0.199610000000    -0.179929   
N249     N      0.742730000000     0.675810000000     0.286320000000    -0.192486   
N250     N      0.742610000000     0.610910000000     0.286300000000    -0.176558   
N251     N      0.741090000000     0.922760000000     0.286610000000    -0.176268   
N252     N      0.740720000000     0.857820000000     0.286730000000    -0.191313   
N253     N      0.742150000000     0.673870000000     0.036520000000    -0.19035    
N254     N      0.742040000000     0.608690000000     0.036480000000    -0.174935   
N255     N      0.741720000000     0.856090000000     0.536600000000    -0.191702   
N256     N      0.741720000000     0.920760000000     0.536490000000    -0.17643    
N257     N      0.741660000000     0.765710000000     0.448310000000    -0.240325   
N258     N      0.741770000000     0.766300000000     0.374950000000    -0.241669   
N259     N      0.742260000000     0.765690000000     0.124830000000    -0.240416   
N260     N      0.741650000000     0.766500000000     0.198180000000    -0.241597   
N261     N      0.982410000000     0.610680000000     0.297930000000    -0.174145   
N262     N      0.486430000000     0.675690000000     0.293150000000    -0.189353   
N263     N      0.994750000000     0.858300000000     0.281010000000    -0.189795   
N264     N      0.996290000000     0.923490000000     0.277580000000    -0.174699   
N265     N      0.899480000000     0.769270000000     0.286850000000    -0.189026   
N266     N      0.833760000000     0.768710000000     0.286870000000    -0.189504   
N267     N      0.583730000000     0.764710000000     0.286320000000    -0.189273   
N268     N      0.649470000000     0.765180000000     0.286310000000    -0.18939    
N269     N      0.490070000000     0.674470000000     0.031140000000    -0.188515   
N270     N      0.487040000000     0.609240000000     0.027870000000    -0.174376   
N271     N      0.992140000000     0.857100000000     0.543040000000    -0.19002    
N272     N      0.991130000000     0.921880000000     0.548690000000    -0.17557    
N273     N      0.899940000000     0.766070000000     0.536180000000    -0.188604   
N274     N      0.834160000000     0.765650000000     0.036320000000    -0.188721   
N275     N      0.584170000000     0.765150000000     0.037010000000    -0.188639   
N276     N      0.649910000000     0.764940000000     0.036860000000    -0.18895    
N277     N      0.992560000000     0.769850000000     0.448500000000    -0.239096   
N278     N      0.492570000000     0.770140000000     0.375070000000    -0.239807   
N279     N      0.491420000000     0.762960000000     0.124920000000    -0.239323   
N280     N      0.990900000000     0.763430000000     0.198350000000    -0.239883   
N281     N      0.695840000000     0.008210000000     0.945480000000    -0.182502   
N282     N      0.691360000000     0.508920000000     0.873910000000    -0.17876    
N283     N      0.787850000000     0.507730000000     0.627340000000    -0.179327   
N284     N      0.792370000000     0.008240000000     0.698910000000    -0.182074   
N285     N      0.948400000000     0.991890000000     0.947310000000    -0.172933   
N286     N      0.945760000000     0.490940000000     0.876150000000    -0.179896   
N287     N      0.028990000000     0.539760000000     0.628570000000    -0.180513   
N288     N      0.031670000000     0.043000000000     0.699620000000    -0.179959   
N289     N      0.742740000000     0.675810000000     0.786320000000    -0.192504   
N290     N      0.742630000000     0.610910000000     0.786300000000    -0.176512   
N291     N      0.741110000000     0.922760000000     0.786600000000    -0.176229   
N292     N      0.740720000000     0.857820000000     0.786720000000    -0.191322   
N293     N      0.742150000000     0.673860000000     0.536520000000    -0.190209   
N294     N      0.742050000000     0.608690000000     0.536480000000    -0.174954   
N295     N      0.741720000000     0.856100000000     0.036600000000    -0.191574   
N296     N      0.741720000000     0.920760000000     0.036490000000    -0.176415   
N297     N      0.741660000000     0.765710000000     0.948310000000    -0.240136   
N298     N      0.741770000000     0.766300000000     0.874950000000    -0.241694   
N299     N      0.742260000000     0.765690000000     0.624830000000    -0.240374   
N300     N      0.741650000000     0.766500000000     0.698180000000    -0.241605   
N301     N      0.982410000000     0.610680000000     0.797930000000    -0.174104   
N302     N      0.486430000000     0.675690000000     0.793160000000    -0.189283   
N303     N      0.994750000000     0.858300000000     0.781010000000    -0.189777   
N304     N      0.996290000000     0.923490000000     0.777580000000    -0.174713   
N305     N      0.899480000000     0.769270000000     0.786850000000    -0.189053   
N306     N      0.833760000000     0.768710000000     0.786870000000    -0.189554   
N307     N      0.583730000000     0.764710000000     0.786320000000    -0.189269   
N308     N      0.649480000000     0.765180000000     0.786310000000    -0.18947    
N309     N      0.490070000000     0.674470000000     0.531140000000    -0.188495   
N310     N      0.487040000000     0.609240000000     0.527870000000    -0.174271   
N311     N      0.992140000000     0.857100000000     0.043040000000    -0.189973   
N312     N      0.991130000000     0.921880000000     0.048690000000    -0.175575   
N313     N      0.899940000000     0.766070000000     0.036180000000    -0.18864    
N314     N      0.834160000000     0.765650000000     0.536320000000    -0.188685   
N315     N      0.584170000000     0.765150000000     0.537010000000    -0.188606   
N316     N      0.649920000000     0.764940000000     0.536860000000    -0.189003   
N317     N      0.992560000000     0.769850000000     0.948500000000    -0.238935   
N318     N      0.492570000000     0.770140000000     0.875070000000    -0.239773   
N319     N      0.491420000000     0.762960000000     0.624920000000    -0.23928    
N320     N      0.990900000000     0.763430000000     0.698350000000    -0.239862   
O1       O      0.497840000000     0.308960000000     0.068030000000    -0.475507   
O2       O      0.988490000000     0.220030000000     0.063050000000    -0.47428    
O3       O      0.036940000000     0.260980000000     0.065910000000    -0.476519   
O4       O      0.447340000000     0.267780000000     0.065240000000    -0.479036   
O5       O      0.447160000000     0.264380000000     0.506930000000    -0.476283   
O6       O      0.036830000000     0.270020000000     0.508330000000    -0.477184   
O7       O      0.994740000000     0.222640000000     0.505030000000    -0.472056   
O8       O      0.486950000000     0.312060000000     0.510890000000    -0.471049   
O9       O      0.496660000000     0.312910000000     0.313200000000    -0.47526    
O10      O      0.993390000000     0.223790000000     0.318350000000    -0.479557   
O11      O      0.036890000000     0.267100000000     0.315820000000    -0.480831   
O12      O      0.447160000000     0.269800000000     0.315670000000    -0.480225   
O13      O      0.446300000000     0.266970000000     0.257310000000    -0.479828   
O14      O      0.036030000000     0.263980000000     0.257520000000    -0.480091   
O15      O      0.985770000000     0.220940000000     0.260560000000    -0.474084   
O16      O      0.489310000000     0.310140000000     0.255340000000    -0.476642   
O17      O      0.247260000000     0.309600000000     0.065180000000    -0.481001   
O18      O      0.239540000000     0.220700000000     0.065660000000    -0.479541   
O19      O      0.287070000000     0.262170000000     0.065590000000    -0.478509   
O20      O      0.197390000000     0.267810000000     0.065650000000    -0.479598   
O21      O      0.197000000000     0.262180000000     0.507540000000    -0.478982   
O22      O      0.286630000000     0.268510000000     0.507570000000    -0.479229   
O23      O      0.244760000000     0.220750000000     0.507440000000    -0.479391   
O24      O      0.236390000000     0.309610000000     0.507930000000    -0.480689   
O25      O      0.244360000000     0.311120000000     0.315660000000    -0.484164   
O26      O      0.245830000000     0.222450000000     0.315440000000    -0.48725    
O27      O      0.286800000000     0.267910000000     0.316320000000    -0.482041   
O28      O      0.197040000000     0.266050000000     0.315300000000    -0.483078   
O29      O      0.196430000000     0.266100000000     0.256850000000    -0.481718   
O30      O      0.286200000000     0.267440000000     0.257890000000    -0.483504   
O31      O      0.238880000000     0.222500000000     0.257480000000    -0.487862   
O32      O      0.237530000000     0.311160000000     0.257590000000    -0.484148   
O33      O      0.016430000000     0.468040000000     0.537890000000    -0.389956   
O34      O      0.009110000000     0.061220000000     0.014310000000    -0.385403   
O35      O      0.034710000000     0.025090000000     0.071240000000    -0.401366   
O36      O      0.991190000000     0.502100000000     0.480880000000    -0.405446   
O37      O      0.443270000000     0.510070000000     0.503700000000    -0.400561   
O38      O      0.487010000000     0.024130000000     0.096460000000    -0.405075   
O39      O      0.463950000000     0.063180000000     0.044420000000    -0.397899   
O40      O      0.466340000000     0.469010000000     0.555940000000    -0.394297   
O41      O      0.016940000000     0.470810000000     0.294120000000    -0.395788   
O42      O      0.006550000000     0.064020000000     0.311300000000    -0.391624   
O43      O      0.988790000000     0.006400000000     0.346170000000    -0.408097   
O44      O      0.035640000000     0.527230000000     0.257140000000    -0.399237   
O45      O      0.488870000000     0.527570000000     0.229880000000    -0.408045   
O46      O      0.442020000000     0.007130000000     0.318830000000    -0.398881   
O47      O      0.461050000000     0.063480000000     0.281730000000    -0.395301   
O48      O      0.471270000000     0.469980000000     0.264890000000    -0.391427   
O49      O      0.267050000000     0.467280000000     0.528270000000    -0.393951   
O50      O      0.262350000000     0.061660000000     0.017850000000    -0.393715   
O51      O      0.288740000000     0.019150000000     0.068580000000    -0.39708    
O52      O      0.240700000000     0.508740000000     0.477520000000    -0.400619   
O53      O      0.194990000000     0.519420000000     0.504320000000    -0.396522   
O54      O      0.242970000000     0.008640000000     0.095310000000    -0.402339   
O55      O      0.221620000000     0.061730000000     0.055080000000    -0.393615   
O56      O      0.216440000000     0.467360000000     0.544520000000    -0.394075   
O57      O      0.263590000000     0.064000000000     0.303630000000    -0.399154   
O58      O      0.263710000000     0.469390000000     0.302330000000    -0.398349   
O59      O      0.291040000000     0.517020000000     0.258290000000    -0.397045   
O60      O      0.237410000000     0.015490000000     0.345910000000    -0.406252   
O61      O      0.192750000000     0.017750000000     0.314570000000    -0.3978     
O62      O      0.246350000000     0.515320000000     0.226950000000    -0.405128   
O63      O      0.219330000000     0.469690000000     0.270590000000    -0.398754   
O64      O      0.220890000000     0.064260000000     0.269170000000    -0.399298   
O65      O      0.497840000000     0.308960000000     0.568030000000    -0.475585   
O66      O      0.988490000000     0.220030000000     0.563050000000    -0.474319   
O67      O      0.036940000000     0.260980000000     0.565910000000    -0.476558   
O68      O      0.447340000000     0.267780000000     0.565240000000    -0.47896    
O69      O      0.447160000000     0.264380000000     0.006930000000    -0.475604   
O70      O      0.036830000000     0.270020000000     0.008330000000    -0.476503   
O71      O      0.994740000000     0.222640000000     0.005030000000    -0.471377   
O72      O      0.486950000000     0.312060000000     0.010890000000    -0.470393   
O73      O      0.496660000000     0.312910000000     0.813200000000    -0.475273   
O74      O      0.993390000000     0.223790000000     0.818350000000    -0.479567   
O75      O      0.036890000000     0.267100000000     0.815820000000    -0.480742   
O76      O      0.447160000000     0.269800000000     0.815670000000    -0.48046    
O77      O      0.446300000000     0.266970000000     0.757310000000    -0.479846   
O78      O      0.036030000000     0.263980000000     0.757510000000    -0.479902   
O79      O      0.985770000000     0.220940000000     0.760560000000    -0.474082   
O80      O      0.489310000000     0.310140000000     0.755340000000    -0.476635   
O81      O      0.247270000000     0.309590000000     0.565180000000    -0.481074   
O82      O      0.239540000000     0.220700000000     0.565660000000    -0.4796     
O83      O      0.287070000000     0.262160000000     0.565590000000    -0.478519   
O84      O      0.197390000000     0.267810000000     0.565640000000    -0.479818   
O85      O      0.197000000000     0.262180000000     0.007540000000    -0.478231   
O86      O      0.286630000000     0.268510000000     0.007570000000    -0.478556   
O87      O      0.244760000000     0.220750000000     0.007440000000    -0.478703   
O88      O      0.236390000000     0.309610000000     0.007930000000    -0.480083   
O89      O      0.244360000000     0.311120000000     0.815660000000    -0.484168   
O90      O      0.245830000000     0.222450000000     0.815440000000    -0.487318   
O91      O      0.286810000000     0.267910000000     0.816330000000    -0.481842   
O92      O      0.197040000000     0.266060000000     0.815300000000    -0.483019   
O93      O      0.196430000000     0.266100000000     0.756850000000    -0.48155    
O94      O      0.286200000000     0.267440000000     0.757890000000    -0.483594   
O95      O      0.238880000000     0.222500000000     0.757490000000    -0.48798    
O96      O      0.237540000000     0.311160000000     0.757590000000    -0.484136   
O97      O      0.016430000000     0.468040000000     0.037890000000    -0.389862   
O98      O      0.009110000000     0.061220000000     0.514320000000    -0.385688   
O99      O      0.034710000000     0.025090000000     0.571240000000    -0.401251   
O100     O      0.991190000000     0.502100000000     0.980880000000    -0.405686   
O101     O      0.443270000000     0.510070000000     0.003700000000    -0.399951   
O102     O      0.487010000000     0.024130000000     0.596470000000    -0.404971   
O103     O      0.463960000000     0.063180000000     0.544420000000    -0.397972   
O104     O      0.466340000000     0.469010000000     0.055940000000    -0.39425    
O105     O      0.016940000000     0.470820000000     0.794120000000    -0.395938   
O106     O      0.006550000000     0.064020000000     0.811300000000    -0.391647   
O107     O      0.988780000000     0.006400000000     0.846180000000    -0.408253   
O108     O      0.035640000000     0.527230000000     0.757140000000    -0.399072   
O109     O      0.488870000000     0.527570000000     0.729880000000    -0.408028   
O110     O      0.442020000000     0.007130000000     0.818820000000    -0.398834   
O111     O      0.461050000000     0.063480000000     0.781730000000    -0.39531    
O112     O      0.471270000000     0.469980000000     0.764890000000    -0.391464   
O113     O      0.267050000000     0.467280000000     0.028280000000    -0.393941   
O114     O      0.262350000000     0.061660000000     0.517850000000    -0.393815   
O115     O      0.288750000000     0.019150000000     0.568570000000    -0.397089   
O116     O      0.240710000000     0.508740000000     0.977520000000    -0.400839   
O117     O      0.194990000000     0.519420000000     0.004300000000    -0.395852   
O118     O      0.242980000000     0.008640000000     0.595310000000    -0.402254   
O119     O      0.221620000000     0.061720000000     0.555090000000    -0.393642   
O120     O      0.216430000000     0.467370000000     0.044510000000    -0.39397    
O121     O      0.263610000000     0.064000000000     0.803620000000    -0.399171   
O122     O      0.263730000000     0.469390000000     0.802310000000    -0.398538   
O123     O      0.291060000000     0.517020000000     0.758280000000    -0.397205   
O124     O      0.237430000000     0.015490000000     0.845890000000    -0.406383   
O125     O      0.192770000000     0.017750000000     0.814560000000    -0.397815   
O126     O      0.246380000000     0.515320000000     0.726930000000    -0.405063   
O127     O      0.219360000000     0.469690000000     0.770570000000    -0.398736   
O128     O      0.220910000000     0.064260000000     0.769160000000    -0.399292   
O129     O      0.497840000000     0.808960000000     0.068030000000    -0.475564   
O130     O      0.988500000000     0.720030000000     0.063060000000    -0.474198   
O131     O      0.036940000000     0.760990000000     0.065910000000    -0.476583   
O132     O      0.447340000000     0.767780000000     0.065240000000    -0.478921   
O133     O      0.447160000000     0.764380000000     0.506930000000    -0.476314   
O134     O      0.036830000000     0.770020000000     0.508340000000    -0.477333   
O135     O      0.994750000000     0.722640000000     0.505040000000    -0.472259   
O136     O      0.486950000000     0.812060000000     0.510890000000    -0.470882   
O137     O      0.496670000000     0.812910000000     0.313200000000    -0.475206   
O138     O      0.993390000000     0.723790000000     0.318350000000    -0.479634   
O139     O      0.036890000000     0.767100000000     0.315820000000    -0.480905   
O140     O      0.447160000000     0.769800000000     0.315680000000    -0.480161   
O141     O      0.446300000000     0.766980000000     0.257310000000    -0.479644   
O142     O      0.036030000000     0.763980000000     0.257520000000    -0.480191   
O143     O      0.985770000000     0.720950000000     0.260560000000    -0.474071   
O144     O      0.489320000000     0.810140000000     0.255340000000    -0.476554   
O145     O      0.247270000000     0.809590000000     0.065180000000    -0.480995   
O146     O      0.239530000000     0.720700000000     0.065660000000    -0.479577   
O147     O      0.287070000000     0.762160000000     0.065590000000    -0.478554   
O148     O      0.197390000000     0.767820000000     0.065650000000    -0.47942    
O149     O      0.197000000000     0.762180000000     0.507540000000    -0.478938   
O150     O      0.286630000000     0.768510000000     0.507570000000    -0.479109   
O151     O      0.244750000000     0.720750000000     0.507440000000    -0.479473   
O152     O      0.236400000000     0.809610000000     0.507930000000    -0.480673   
O153     O      0.244350000000     0.811120000000     0.315660000000    -0.484222   
O154     O      0.245850000000     0.722450000000     0.315440000000    -0.487261   
O155     O      0.286810000000     0.767910000000     0.316330000000    -0.481768   
O156     O      0.197040000000     0.766050000000     0.315300000000    -0.483129   
O157     O      0.196430000000     0.766090000000     0.256850000000    -0.481627   
O158     O      0.286200000000     0.767450000000     0.257890000000    -0.48357    
O159     O      0.238890000000     0.722500000000     0.257490000000    -0.487855   
O160     O      0.237520000000     0.811160000000     0.257590000000    -0.484083   
O161     O      0.016430000000     0.968040000000     0.537890000000    -0.384897   
O162     O      0.009120000000     0.561220000000     0.014310000000    -0.386161   
O163     O      0.034710000000     0.525090000000     0.071240000000    -0.4012     
O164     O      0.991190000000     0.002100000000     0.480890000000    -0.405787   
O165     O      0.443270000000     0.010070000000     0.503700000000    -0.400029   
O166     O      0.487020000000     0.524130000000     0.096460000000    -0.404801   
O167     O      0.463960000000     0.563180000000     0.044420000000    -0.398759   
O168     O      0.466340000000     0.969010000000     0.555950000000    -0.389321   
O169     O      0.016950000000     0.970820000000     0.294120000000    -0.390891   
O170     O      0.006550000000     0.564020000000     0.311300000000    -0.392299   
O171     O      0.988780000000     0.506400000000     0.346180000000    -0.408111   
O172     O      0.035650000000     0.027230000000     0.257140000000    -0.399355   
O173     O      0.488880000000     0.027570000000     0.229880000000    -0.408373   
O174     O      0.442010000000     0.507130000000     0.318830000000    -0.399304   
O175     O      0.461040000000     0.563480000000     0.281730000000    -0.396072   
O176     O      0.471280000000     0.969980000000     0.264890000000    -0.386529   
O177     O      0.267070000000     0.967280000000     0.528280000000    -0.38928    
O178     O      0.262320000000     0.561660000000     0.017840000000    -0.394476   
O179     O      0.288710000000     0.519160000000     0.068570000000    -0.396483   
O180     O      0.240730000000     0.008740000000     0.477530000000    -0.402075   
O181     O      0.195020000000     0.019420000000     0.504330000000    -0.397097   
O182     O      0.242930000000     0.508640000000     0.095300000000    -0.40077    
O183     O      0.221580000000     0.561730000000     0.055060000000    -0.394419   
O184     O      0.216470000000     0.967370000000     0.544520000000    -0.389337   
O185     O      0.263630000000     0.564000000000     0.303610000000    -0.400066   
O186     O      0.263670000000     0.969390000000     0.302340000000    -0.393724   
O187     O      0.291000000000     0.017020000000     0.258300000000    -0.397791   
O188     O      0.237450000000     0.515490000000     0.345890000000    -0.405202   
O189     O      0.192790000000     0.517760000000     0.314560000000    -0.397059   
O190     O      0.246310000000     0.015320000000     0.226960000000    -0.406286   
O191     O      0.219300000000     0.969690000000     0.270600000000    -0.393956   
O192     O      0.220930000000     0.564260000000     0.269160000000    -0.40015    
O193     O      0.497840000000     0.808960000000     0.568030000000    -0.475606   
O194     O      0.988500000000     0.720030000000     0.563050000000    -0.474573   
O195     O      0.036940000000     0.760990000000     0.565910000000    -0.476628   
O196     O      0.447340000000     0.767780000000     0.565240000000    -0.478963   
O197     O      0.447160000000     0.764380000000     0.006930000000    -0.475618   
O198     O      0.036830000000     0.770020000000     0.008340000000    -0.47666    
O199     O      0.994740000000     0.722640000000     0.005030000000    -0.471391   
O200     O      0.486950000000     0.812060000000     0.010890000000    -0.470254   
O201     O      0.496670000000     0.812910000000     0.813200000000    -0.475196   
O202     O      0.993390000000     0.723790000000     0.818350000000    -0.479693   
O203     O      0.036890000000     0.767100000000     0.815820000000    -0.48091    
O204     O      0.447160000000     0.769800000000     0.815680000000    -0.480151   
O205     O      0.446300000000     0.766980000000     0.757310000000    -0.479633   
O206     O      0.036030000000     0.763980000000     0.757520000000    -0.480159   
O207     O      0.985770000000     0.720940000000     0.760560000000    -0.47399    
O208     O      0.489320000000     0.810140000000     0.755340000000    -0.476536   
O209     O      0.247270000000     0.809590000000     0.565180000000    -0.481028   
O210     O      0.239540000000     0.720690000000     0.565660000000    -0.479566   
O211     O      0.287070000000     0.762160000000     0.565590000000    -0.478561   
O212     O      0.197390000000     0.767810000000     0.565650000000    -0.479525   
O213     O      0.197000000000     0.762180000000     0.007540000000    -0.478203   
O214     O      0.286630000000     0.768510000000     0.007570000000    -0.478422   
O215     O      0.244750000000     0.720750000000     0.007440000000    -0.47875    
O216     O      0.236400000000     0.809610000000     0.007930000000    -0.480014   
O217     O      0.244360000000     0.811120000000     0.815660000000    -0.484148   
O218     O      0.245850000000     0.722450000000     0.815440000000    -0.487325   
O219     O      0.286810000000     0.767910000000     0.816330000000    -0.481943   
O220     O      0.197050000000     0.766050000000     0.815300000000    -0.483077   
O221     O      0.196430000000     0.766090000000     0.756850000000    -0.481619   
O222     O      0.286200000000     0.767450000000     0.757890000000    -0.483573   
O223     O      0.238900000000     0.722500000000     0.757490000000    -0.487879   
O224     O      0.237530000000     0.811160000000     0.757590000000    -0.484225   
O225     O      0.016430000000     0.968040000000     0.037890000000    -0.384848   
O226     O      0.009120000000     0.561220000000     0.514320000000    -0.386357   
O227     O      0.034710000000     0.525090000000     0.571240000000    -0.401055   
O228     O      0.991180000000     0.002100000000     0.980880000000    -0.405933   
O229     O      0.443270000000     0.010070000000     0.003700000000    -0.399502   
O230     O      0.487020000000     0.524130000000     0.596470000000    -0.404698   
O231     O      0.463960000000     0.563180000000     0.544420000000    -0.398707   
O232     O      0.466340000000     0.969010000000     0.055950000000    -0.389389   
O233     O      0.016950000000     0.970820000000     0.794120000000    -0.39093    
O234     O      0.006550000000     0.564020000000     0.811310000000    -0.392302   
O235     O      0.988780000000     0.506400000000     0.846180000000    -0.408097   
O236     O      0.035650000000     0.027230000000     0.757140000000    -0.399292   
O237     O      0.488880000000     0.027570000000     0.729880000000    -0.408365   
O238     O      0.442010000000     0.507130000000     0.818830000000    -0.399345   
O239     O      0.461040000000     0.563480000000     0.781730000000    -0.396121   
O240     O      0.471280000000     0.969980000000     0.764890000000    -0.386526   
O241     O      0.267070000000     0.967280000000     0.028290000000    -0.389233   
O242     O      0.262320000000     0.561660000000     0.517840000000    -0.394602   
O243     O      0.288720000000     0.519160000000     0.568560000000    -0.396624   
O244     O      0.240740000000     0.008750000000     0.977530000000    -0.4023     
O245     O      0.195020000000     0.019430000000     0.004310000000    -0.396419   
O246     O      0.242950000000     0.508640000000     0.595300000000    -0.400842   
O247     O      0.221590000000     0.561720000000     0.555070000000    -0.394526   
O248     O      0.216460000000     0.967370000000     0.044510000000    -0.389154   
O249     O      0.263650000000     0.564000000000     0.803600000000    -0.400178   
O250     O      0.263690000000     0.969390000000     0.802330000000    -0.393674   
O251     O      0.291020000000     0.017020000000     0.758290000000    -0.397857   
O252     O      0.237480000000     0.515480000000     0.845880000000    -0.405032   
O253     O      0.192810000000     0.517760000000     0.814540000000    -0.39688    
O254     O      0.246330000000     0.015320000000     0.726950000000    -0.406158   
O255     O      0.219320000000     0.969690000000     0.770580000000    -0.39393    
O256     O      0.220950000000     0.564260000000     0.769150000000    -0.40006    
O257     O      0.997840000000     0.308960000000     0.068030000000    -0.475856   
O258     O      0.488490000000     0.220030000000     0.063060000000    -0.474137   
O259     O      0.536940000000     0.260990000000     0.065910000000    -0.477404   
O260     O      0.947340000000     0.267780000000     0.065240000000    -0.478667   
O261     O      0.947160000000     0.264390000000     0.506930000000    -0.476081   
O262     O      0.536830000000     0.270010000000     0.508330000000    -0.478198   
O263     O      0.494740000000     0.222640000000     0.505040000000    -0.471734   
O264     O      0.986950000000     0.312060000000     0.510890000000    -0.470936   
O265     O      0.996660000000     0.312920000000     0.313190000000    -0.475393   
O266     O      0.493390000000     0.223790000000     0.318340000000    -0.479239   
O267     O      0.536890000000     0.267100000000     0.315820000000    -0.481782   
O268     O      0.947160000000     0.269800000000     0.315670000000    -0.480108   
O269     O      0.946300000000     0.266970000000     0.257310000000    -0.479483   
O270     O      0.536030000000     0.263980000000     0.257520000000    -0.481062   
O271     O      0.485770000000     0.220950000000     0.260550000000    -0.473823   
O272     O      0.989310000000     0.310140000000     0.255330000000    -0.476501   
O273     O      0.747260000000     0.309590000000     0.065180000000    -0.480907   
O274     O      0.739540000000     0.220690000000     0.065660000000    -0.47966    
O275     O      0.787070000000     0.262160000000     0.065590000000    -0.478472   
O276     O      0.697390000000     0.267810000000     0.065650000000    -0.479612   
O277     O      0.697000000000     0.262170000000     0.507540000000    -0.478875   
O278     O      0.786630000000     0.268510000000     0.507570000000    -0.479079   
O279     O      0.744760000000     0.220740000000     0.507440000000    -0.479465   
O280     O      0.736390000000     0.309610000000     0.507930000000    -0.480534   
O281     O      0.744350000000     0.311110000000     0.315660000000    -0.484278   
O282     O      0.745830000000     0.222450000000     0.315440000000    -0.487157   
O283     O      0.786810000000     0.267900000000     0.316330000000    -0.481853   
O284     O      0.697040000000     0.266050000000     0.315300000000    -0.483049   
O285     O      0.696430000000     0.266100000000     0.256850000000    -0.481725   
O286     O      0.786200000000     0.267440000000     0.257890000000    -0.483498   
O287     O      0.738880000000     0.222500000000     0.257480000000    -0.487796   
O288     O      0.737530000000     0.311150000000     0.257590000000    -0.484214   
O289     O      0.516430000000     0.468030000000     0.537880000000    -0.391065   
O290     O      0.509120000000     0.061230000000     0.014320000000    -0.386475   
O291     O      0.534720000000     0.025070000000     0.071230000000    -0.400881   
O292     O      0.491190000000     0.502110000000     0.480880000000    -0.404482   
O293     O      0.943270000000     0.510050000000     0.503700000000    -0.400691   
O294     O      0.987000000000     0.024140000000     0.096460000000    -0.406303   
O295     O      0.963940000000     0.063180000000     0.044400000000    -0.397618   
O296     O      0.966340000000     0.469010000000     0.555950000000    -0.393989   
O297     O      0.516940000000     0.470810000000     0.294140000000    -0.396837   
O298     O      0.506550000000     0.064020000000     0.311300000000    -0.39281    
O299     O      0.488770000000     0.006410000000     0.346180000000    -0.407075   
O300     O      0.535650000000     0.527210000000     0.257160000000    -0.398663   
O301     O      0.988850000000     0.527580000000     0.229890000000    -0.409349   
O302     O      0.942030000000     0.007120000000     0.318840000000    -0.39887    
O303     O      0.961040000000     0.063480000000     0.281750000000    -0.3949     
O304     O      0.971270000000     0.469980000000     0.264890000000    -0.391257   
O305     O      0.767050000000     0.467280000000     0.528270000000    -0.393926   
O306     O      0.762350000000     0.061660000000     0.017850000000    -0.393717   
O307     O      0.788740000000     0.019150000000     0.068580000000    -0.397074   
O308     O      0.740700000000     0.508740000000     0.477530000000    -0.400745   
O309     O      0.694990000000     0.519410000000     0.504320000000    -0.396572   
O310     O      0.742970000000     0.008640000000     0.095310000000    -0.402349   
O311     O      0.721620000000     0.061720000000     0.055080000000    -0.393682   
O312     O      0.716440000000     0.467360000000     0.544520000000    -0.394055   
O313     O      0.763590000000     0.064000000000     0.303630000000    -0.399035   
O314     O      0.763710000000     0.469390000000     0.302330000000    -0.398458   
O315     O      0.791040000000     0.517010000000     0.258290000000    -0.397044   
O316     O      0.737410000000     0.015490000000     0.345910000000    -0.406257   
O317     O      0.692750000000     0.017750000000     0.314570000000    -0.397854   
O318     O      0.746350000000     0.515310000000     0.226950000000    -0.405118   
O319     O      0.719330000000     0.469690000000     0.270590000000    -0.398713   
O320     O      0.720890000000     0.064260000000     0.269170000000    -0.399171   
O321     O      0.997840000000     0.308960000000     0.568030000000    -0.475903   
O322     O      0.488500000000     0.220030000000     0.563060000000    -0.474257   
O323     O      0.536940000000     0.260990000000     0.565910000000    -0.477559   
O324     O      0.947340000000     0.267780000000     0.565240000000    -0.478707   
O325     O      0.947160000000     0.264390000000     0.006930000000    -0.475399   
O326     O      0.536830000000     0.270020000000     0.008330000000    -0.477483   
O327     O      0.494740000000     0.222640000000     0.005030000000    -0.470905   
O328     O      0.986950000000     0.312060000000     0.010890000000    -0.470302   
O329     O      0.996660000000     0.312920000000     0.813190000000    -0.475504   
O330     O      0.493390000000     0.223790000000     0.818340000000    -0.479274   
O331     O      0.536890000000     0.267100000000     0.815820000000    -0.481705   
O332     O      0.947160000000     0.269800000000     0.815670000000    -0.480216   
O333     O      0.946300000000     0.266970000000     0.757310000000    -0.479575   
O334     O      0.536030000000     0.263980000000     0.757510000000    -0.480881   
O335     O      0.485770000000     0.220950000000     0.760550000000    -0.47381    
O336     O      0.989310000000     0.310140000000     0.755330000000    -0.476398   
O337     O      0.747270000000     0.309590000000     0.565180000000    -0.480911   
O338     O      0.739540000000     0.220690000000     0.565660000000    -0.479674   
O339     O      0.787070000000     0.262160000000     0.565590000000    -0.478396   
O340     O      0.697390000000     0.267810000000     0.565650000000    -0.479627   
O341     O      0.696990000000     0.262170000000     0.007540000000    -0.478109   
O342     O      0.786630000000     0.268510000000     0.007570000000    -0.47848    
O343     O      0.744760000000     0.220740000000     0.007440000000    -0.478646   
O344     O      0.736390000000     0.309610000000     0.007930000000    -0.47999    
O345     O      0.744360000000     0.311120000000     0.815660000000    -0.48421    
O346     O      0.745830000000     0.222450000000     0.815440000000    -0.487194   
O347     O      0.786810000000     0.267900000000     0.816330000000    -0.481827   
O348     O      0.697040000000     0.266050000000     0.815300000000    -0.483036   
O349     O      0.696430000000     0.266100000000     0.756850000000    -0.481691   
O350     O      0.786200000000     0.267440000000     0.757890000000    -0.483461   
O351     O      0.738880000000     0.222500000000     0.757490000000    -0.487882   
O352     O      0.737530000000     0.311160000000     0.757590000000    -0.484152   
O353     O      0.516430000000     0.468030000000     0.037870000000    -0.390984   
O354     O      0.509120000000     0.061230000000     0.514320000000    -0.386721   
O355     O      0.534720000000     0.025070000000     0.571230000000    -0.40084    
O356     O      0.491190000000     0.502110000000     0.980880000000    -0.404733   
O357     O      0.943270000000     0.510060000000     0.003700000000    -0.400031   
O358     O      0.987000000000     0.024140000000     0.596460000000    -0.406276   
O359     O      0.963940000000     0.063180000000     0.544400000000    -0.397595   
O360     O      0.966340000000     0.469010000000     0.055950000000    -0.394037   
O361     O      0.516930000000     0.470810000000     0.794140000000    -0.396953   
O362     O      0.506550000000     0.064020000000     0.811300000000    -0.392826   
O363     O      0.488770000000     0.006410000000     0.846180000000    -0.407142   
O364     O      0.535650000000     0.527210000000     0.757160000000    -0.398607   
O365     O      0.988840000000     0.527590000000     0.729890000000    -0.409343   
O366     O      0.942030000000     0.007120000000     0.818840000000    -0.398988   
O367     O      0.961040000000     0.063480000000     0.781750000000    -0.394917   
O368     O      0.971270000000     0.469980000000     0.764890000000    -0.391285   
O369     O      0.767040000000     0.467280000000     0.028280000000    -0.394049   
O370     O      0.762350000000     0.061650000000     0.517850000000    -0.393865   
O371     O      0.788750000000     0.019150000000     0.568570000000    -0.397039   
O372     O      0.740710000000     0.508740000000     0.977520000000    -0.40085    
O373     O      0.694990000000     0.519420000000     0.004300000000    -0.395969   
O374     O      0.742980000000     0.008640000000     0.595310000000    -0.402388   
O375     O      0.721630000000     0.061720000000     0.555090000000    -0.393695   
O376     O      0.716430000000     0.467360000000     0.044510000000    -0.39395    
O377     O      0.763610000000     0.064000000000     0.803620000000    -0.399147   
O378     O      0.763730000000     0.469390000000     0.802320000000    -0.398536   
O379     O      0.791060000000     0.517010000000     0.758280000000    -0.397241   
O380     O      0.737430000000     0.015480000000     0.845900000000    -0.40626    
O381     O      0.692770000000     0.017750000000     0.814560000000    -0.397865   
O382     O      0.746380000000     0.515320000000     0.726940000000    -0.405185   
O383     O      0.719360000000     0.469690000000     0.770570000000    -0.398728   
O384     O      0.720910000000     0.064260000000     0.769160000000    -0.399199   
O385     O      0.997840000000     0.808960000000     0.068030000000    -0.475782   
O386     O      0.488500000000     0.720030000000     0.063060000000    -0.47425    
O387     O      0.536940000000     0.760990000000     0.065910000000    -0.477539   
O388     O      0.947340000000     0.767780000000     0.065240000000    -0.478678   
O389     O      0.947160000000     0.764380000000     0.506930000000    -0.476095   
O390     O      0.536830000000     0.770020000000     0.508340000000    -0.478286   
O391     O      0.494750000000     0.722640000000     0.505040000000    -0.471746   
O392     O      0.986950000000     0.812060000000     0.510890000000    -0.470889   
O393     O      0.996670000000     0.812920000000     0.313200000000    -0.475325   
O394     O      0.493390000000     0.723790000000     0.318350000000    -0.479179   
O395     O      0.536890000000     0.767090000000     0.315820000000    -0.481892   
O396     O      0.947160000000     0.769800000000     0.315680000000    -0.479897   
O397     O      0.946300000000     0.766970000000     0.257310000000    -0.479355   
O398     O      0.536030000000     0.763980000000     0.257520000000    -0.481155   
O399     O      0.485770000000     0.720950000000     0.260560000000    -0.473933   
O400     O      0.989310000000     0.810140000000     0.255340000000    -0.4764     
O401     O      0.747270000000     0.809590000000     0.065180000000    -0.480855   
O402     O      0.739530000000     0.720690000000     0.065660000000    -0.479716   
O403     O      0.787070000000     0.762150000000     0.065590000000    -0.478505   
O404     O      0.697390000000     0.767810000000     0.065650000000    -0.479432   
O405     O      0.697000000000     0.762180000000     0.507540000000    -0.478935   
O406     O      0.786630000000     0.768500000000     0.507570000000    -0.479104   
O407     O      0.744750000000     0.720740000000     0.507450000000    -0.479663   
O408     O      0.736400000000     0.809610000000     0.507930000000    -0.480535   
O409     O      0.744350000000     0.811110000000     0.315660000000    -0.484329   
O410     O      0.745850000000     0.722450000000     0.315440000000    -0.487201   
O411     O      0.786810000000     0.767910000000     0.316330000000    -0.481783   
O412     O      0.697040000000     0.766040000000     0.315300000000    -0.483159   
O413     O      0.696430000000     0.766090000000     0.256850000000    -0.481654   
O414     O      0.786200000000     0.767450000000     0.257890000000    -0.483557   
O415     O      0.738890000000     0.722500000000     0.257490000000    -0.487903   
O416     O      0.737530000000     0.811160000000     0.257590000000    -0.483988   
O417     O      0.516430000000     0.968030000000     0.537880000000    -0.386157   
O418     O      0.509120000000     0.561230000000     0.014320000000    -0.387362   
O419     O      0.534720000000     0.525070000000     0.071230000000    -0.400668   
O420     O      0.491180000000     0.002110000000     0.480880000000    -0.404848   
O421     O      0.943270000000     0.010050000000     0.503700000000    -0.400073   
O422     O      0.987000000000     0.524140000000     0.096460000000    -0.405816   
O423     O      0.963950000000     0.563180000000     0.044400000000    -0.398443   
O424     O      0.966330000000     0.969010000000     0.555960000000    -0.388962   
O425     O      0.516950000000     0.970810000000     0.294140000000    -0.391913   
O426     O      0.506550000000     0.564020000000     0.311300000000    -0.393518   
O427     O      0.488760000000     0.506410000000     0.346180000000    -0.407245   
O428     O      0.535660000000     0.027210000000     0.257160000000    -0.399059   
O429     O      0.988850000000     0.027580000000     0.229890000000    -0.409608   
O430     O      0.942020000000     0.507120000000     0.318840000000    -0.399271   
O431     O      0.961030000000     0.563480000000     0.281760000000    -0.395719   
O432     O      0.971280000000     0.969980000000     0.264890000000    -0.386362   
O433     O      0.767070000000     0.967280000000     0.528280000000    -0.389324   
O434     O      0.762320000000     0.561660000000     0.017840000000    -0.394443   
O435     O      0.788710000000     0.519160000000     0.068570000000    -0.396456   
O436     O      0.740730000000     0.008740000000     0.477530000000    -0.401949   
O437     O      0.695020000000     0.019420000000     0.504330000000    -0.397063   
O438     O      0.742930000000     0.508640000000     0.095300000000    -0.400771   
O439     O      0.721580000000     0.561720000000     0.055070000000    -0.394367   
O440     O      0.716470000000     0.967360000000     0.544520000000    -0.38931    
O441     O      0.763630000000     0.564000000000     0.303610000000    -0.399997   
O442     O      0.763670000000     0.969390000000     0.302340000000    -0.393858   
O443     O      0.791000000000     0.017020000000     0.258300000000    -0.397766   
O444     O      0.737450000000     0.515480000000     0.345890000000    -0.405202   
O445     O      0.692790000000     0.517760000000     0.314560000000    -0.397077   
O446     O      0.746310000000     0.015310000000     0.226960000000    -0.406185   
O447     O      0.719300000000     0.969680000000     0.270600000000    -0.394032   
O448     O      0.720930000000     0.564260000000     0.269160000000    -0.400157   
O449     O      0.997840000000     0.808960000000     0.568030000000    -0.475693   
O450     O      0.488500000000     0.720030000000     0.563060000000    -0.47428    
O451     O      0.536940000000     0.760990000000     0.565910000000    -0.477573   
O452     O      0.947340000000     0.767780000000     0.565240000000    -0.478712   
O453     O      0.947160000000     0.764390000000     0.006930000000    -0.475422   
O454     O      0.536830000000     0.770020000000     0.008340000000    -0.477614   
O455     O      0.494740000000     0.722640000000     0.005040000000    -0.471096   
O456     O      0.986950000000     0.812060000000     0.010890000000    -0.470256   
O457     O      0.996670000000     0.812920000000     0.813200000000    -0.475343   
O458     O      0.493390000000     0.723790000000     0.818350000000    -0.479101   
O459     O      0.536890000000     0.767090000000     0.815820000000    -0.481879   
O460     O      0.947160000000     0.769800000000     0.815680000000    -0.479906   
O461     O      0.946300000000     0.766970000000     0.757310000000    -0.479351   
O462     O      0.536030000000     0.763980000000     0.757520000000    -0.481144   
O463     O      0.485770000000     0.720950000000     0.760550000000    -0.473785   
O464     O      0.989320000000     0.810140000000     0.755340000000    -0.4764     
O465     O      0.747270000000     0.809590000000     0.565180000000    -0.480923   
O466     O      0.739530000000     0.720690000000     0.565660000000    -0.479742   
O467     O      0.787070000000     0.762150000000     0.565590000000    -0.478556   
O468     O      0.697390000000     0.767810000000     0.565650000000    -0.479508   
O469     O      0.697000000000     0.762180000000     0.007540000000    -0.478194   
O470     O      0.786630000000     0.768510000000     0.007570000000    -0.478392   
O471     O      0.744750000000     0.720740000000     0.007450000000    -0.47887    
O472     O      0.736400000000     0.809610000000     0.007930000000    -0.479976   
O473     O      0.744360000000     0.811120000000     0.815660000000    -0.484276   
O474     O      0.745850000000     0.722450000000     0.815440000000    -0.48724    
O475     O      0.786810000000     0.767910000000     0.816330000000    -0.482007   
O476     O      0.697050000000     0.766040000000     0.815300000000    -0.483119   
O477     O      0.696430000000     0.766090000000     0.756850000000    -0.481655   
O478     O      0.786200000000     0.767450000000     0.757900000000    -0.483721   
O479     O      0.738900000000     0.722500000000     0.757490000000    -0.487926   
O480     O      0.737530000000     0.811160000000     0.757590000000    -0.484013   
O481     O      0.516430000000     0.968030000000     0.037880000000    -0.386019   
O482     O      0.509130000000     0.561220000000     0.514320000000    -0.387365   
O483     O      0.534720000000     0.525070000000     0.571230000000    -0.400617   
O484     O      0.491180000000     0.002110000000     0.980880000000    -0.405009   
O485     O      0.943260000000     0.010050000000     0.003700000000    -0.399432   
O486     O      0.987000000000     0.524140000000     0.596460000000    -0.405788   
O487     O      0.963950000000     0.563180000000     0.544400000000    -0.398506   
O488     O      0.966330000000     0.969010000000     0.055950000000    -0.388967   
O489     O      0.516950000000     0.970810000000     0.794140000000    -0.391891   
O490     O      0.506540000000     0.564020000000     0.811300000000    -0.393656   
O491     O      0.488760000000     0.506410000000     0.846180000000    -0.407161   
O492     O      0.535660000000     0.027220000000     0.757160000000    -0.398935   
O493     O      0.988850000000     0.027580000000     0.729890000000    -0.409624   
O494     O      0.942020000000     0.507120000000     0.818840000000    -0.399358   
O495     O      0.961030000000     0.563480000000     0.781760000000    -0.39565    
O496     O      0.971280000000     0.969980000000     0.764890000000    -0.386333   
O497     O      0.767070000000     0.967280000000     0.028290000000    -0.389155   
O498     O      0.762320000000     0.561660000000     0.517840000000    -0.394693   
O499     O      0.788720000000     0.519150000000     0.568560000000    -0.396602   
O500     O      0.740740000000     0.008740000000     0.977530000000    -0.402338   
O501     O      0.695030000000     0.019420000000     0.004310000000    -0.396633   
O502     O      0.742950000000     0.508640000000     0.595300000000    -0.400857   
O503     O      0.721590000000     0.561720000000     0.555070000000    -0.394457   
O504     O      0.716460000000     0.967360000000     0.044520000000    -0.389228   
O505     O      0.763650000000     0.564000000000     0.803610000000    -0.399934   
O506     O      0.763690000000     0.969390000000     0.802330000000    -0.393685   
O507     O      0.791020000000     0.017020000000     0.758290000000    -0.397777   
O508     O      0.737480000000     0.515480000000     0.845880000000    -0.40514    
O509     O      0.692810000000     0.517750000000     0.814540000000    -0.396877   
O510     O      0.746330000000     0.015320000000     0.726950000000    -0.406203   
O511     O      0.719320000000     0.969690000000     0.770590000000    -0.394092   
O512     O      0.720950000000     0.564260000000     0.769150000000    -0.400126   


