data_structure

_audit_creation_method RASPA-1.0
_audit_creation_date 2023-5-23
_audit_author_name 'Poobodin Mano'

_cell_length_a    32.1563
_cell_length_b    32.156
_cell_length_c    28.6013
_cell_angle_alpha 90.0008
_cell_angle_beta  89.9991
_cell_angle_gamma 89.998
_cell_volume      29574.3

_symmetry_cell_setting          triclinic
_symmetry_space_group_name_Hall 'P 1'
_symmetry_space_group_name_H-M  'P 1'
_symmetry_Int_Tables_number     1

_symmetry_equiv_pos_as_xyz 'x,y,z'

loop_
_atom_site_label
_atom_site_type_symbol
_atom_site_fract_x
_atom_site_fract_y
_atom_site_fract_z
_atom_site_charge
C1       C      0.540180000000     0.300910000000     0.081350000000     0.404825   
C2       C      0.423340000000     0.300760000000     0.949300000000     0.404987   
C3       C      0.540170000000     0.300920000000     0.949310000000     0.404995   
C4       C      0.423350000000     0.300750000000     0.081370000000     0.405015   
C5       C      0.205220000000     0.635850000000     0.949320000000     0.404882   
C6       C      0.205070000000     0.519010000000     0.081370000000     0.405002   
C7       C      0.205220000000     0.635840000000     0.081370000000     0.404944   
C8       C      0.205060000000     0.519020000000     0.949310000000     0.404993   
C9       C      0.540740000000     0.854700000000     0.081370000000     0.404962   
C10      C      0.423910000000     0.854540000000     0.949330000000     0.404761   
C11      C      0.540730000000     0.854700000000     0.949310000000     0.404998   
C12      C      0.423920000000     0.854540000000     0.081370000000     0.40496    
C13      C      0.758870000000     0.519610000000     0.081350000000     0.405101   
C14      C      0.759020000000     0.636440000000     0.949310000000     0.404974   
C15      C      0.758870000000     0.519620000000     0.949310000000     0.405004   
C16      C      0.759030000000     0.636440000000     0.081370000000     0.404947   
C17      C      0.259020000000     0.019020000000     0.581380000000     0.40482    
C18      C      0.258870000000     0.135840000000     0.449320000000     0.405167   
C19      C      0.259020000000     0.019020000000     0.449310000000     0.404855   
C20      C      0.258870000000     0.135840000000     0.581370000000     0.405123   
C21      C      0.923920000000     0.800920000000     0.449320000000     0.404761   
C22      C      0.040740000000     0.800760000000     0.581380000000     0.404858   
C23      C      0.923910000000     0.800920000000     0.581370000000     0.404715   
C24      C      0.040740000000     0.800750000000     0.449320000000     0.404758   
C25      C      0.705220000000     0.019610000000     0.581350000000     0.404746   
C26      C      0.705070000000     0.136440000000     0.449300000000     0.404906   
C27      C      0.705220000000     0.019610000000     0.449310000000     0.404771   
C28      C      0.705060000000     0.136440000000     0.581360000000     0.404955   
C29      C      0.923350000000     0.354700000000     0.449300000000     0.404901   
C30      C      0.040170000000     0.354540000000     0.581350000000     0.405051   
C31      C      0.923340000000     0.354700000000     0.581360000000     0.404903   
C32      C      0.040170000000     0.354540000000     0.449310000000     0.405017   
C33      C      0.215800000000     0.392950000000     0.211250000000     0.404699   
C34      C      0.247850000000     0.262010000000     0.319590000000     0.404866   
C35      C      0.297290000000     0.311470000000     0.211250000000     0.404726   
C36      C      0.166350000000     0.343510000000     0.319580000000     0.404778   
C37      C      0.666350000000     0.311930000000     0.211080000000     0.404876   
C38      C      0.797280000000     0.343980000000     0.319410000000     0.404851   
C39      C      0.747860000000     0.393440000000     0.211080000000     0.404698   
C40      C      0.715800000000     0.262500000000     0.319410000000     0.404663   
C41      C      0.666340000000     0.311940000000     0.819580000000     0.404834   
C42      C      0.797280000000     0.343980000000     0.711240000000     0.40473    
C43      C      0.747850000000     0.393440000000     0.819570000000     0.404747   
C44      C      0.715800000000     0.262510000000     0.711240000000     0.404766   
C45      C      0.797750000000     0.811930000000     0.319590000000     0.404563   
C46      C      0.666810000000     0.843970000000     0.211250000000     0.404707   
C47      C      0.716240000000     0.893440000000     0.319580000000     0.404858   
C48      C      0.748290000000     0.762490000000     0.211260000000     0.404653   
C49      C      0.748280000000     0.762510000000     0.819420000000     0.404806   
C50      C      0.716230000000     0.893450000000     0.711090000000     0.404688   
C51      C      0.666800000000     0.843990000000     0.819420000000     0.404812   
C52      C      0.797740000000     0.811940000000     0.711090000000     0.404721   
C53      C      0.166810000000     0.811470000000     0.319430000000     0.40486    
C54      C      0.297750000000     0.843510000000     0.211100000000     0.404781   
C55      C      0.248290000000     0.892950000000     0.319430000000     0.40475    
C56      C      0.216240000000     0.762010000000     0.211100000000     0.404762   
C57      C      0.297740000000     0.843520000000     0.819600000000     0.404846   
C58      C      0.166800000000     0.811480000000     0.711260000000     0.404757   
C59      C      0.216230000000     0.762020000000     0.819600000000     0.404859   
C60      C      0.248280000000     0.892950000000     0.711260000000     0.404795   
C61      C      0.297280000000     0.311480000000     0.819420000000     0.404744   
C62      C      0.166340000000     0.343520000000     0.711080000000     0.404771   
C63      C      0.215790000000     0.392960000000     0.819420000000     0.404743   
C64      C      0.247850000000     0.262020000000     0.711090000000     0.404728   
C65      C      0.072530000000     0.320280000000     0.644830000000     0.0316529  
C66      C      0.098400000000     0.385210000000     0.619590000000     0.0314499  
C67      C      0.131330000000     0.381750000000     0.651430000000     0.0313587  
C68      C      0.103420000000     0.318370000000     0.678870000000     0.0308317  
C69      C      0.072530000000     0.320280000000     0.385830000000     0.0316751  
C70      C      0.098400000000     0.385210000000     0.411070000000     0.0313282  
C71      C      0.131330000000     0.381740000000     0.379230000000     0.0314816  
C72      C      0.103430000000     0.318370000000     0.351800000000     0.0308356  
C73      C      0.865210000000     0.385500000000     0.411020000000     0.0313235  
C74      C      0.890990000000     0.320540000000     0.385760000000     0.031511   
C75      C      0.860140000000     0.318720000000     0.351680000000     0.030713   
C76      C      0.832300000000     0.382120000000     0.379130000000     0.0313124  
C77      C      0.865200000000     0.385510000000     0.619640000000     0.0312435  
C78      C      0.890990000000     0.320540000000     0.644900000000     0.0314334  
C79      C      0.860130000000     0.318720000000     0.678980000000     0.0307831  
C80      C      0.832300000000     0.382120000000     0.651530000000     0.0313989  
C81      C      0.674270000000     0.194580000000     0.619640000000     0.0313853  
C82      C      0.739220000000     0.168790000000     0.644900000000     0.031588   
C83      C      0.741050000000     0.199650000000     0.678990000000     0.0307467  
C84      C      0.677650000000     0.227490000000     0.651530000000     0.0313477  
C85      C      0.674270000000     0.194580000000     0.411020000000     0.0314263  
C86      C      0.739230000000     0.168790000000     0.385760000000     0.0315131  
C87      C      0.741060000000     0.199650000000     0.351670000000     0.0307848  
C88      C      0.677650000000     0.227490000000     0.379130000000     0.0312494  
C89      C      0.739480000000     0.987260000000     0.385830000000     0.0317937  
C90      C      0.674540000000     0.961380000000     0.411080000000     0.0312907  
C91      C      0.678010000000     0.928450000000     0.379230000000     0.0314454  
C92      C      0.741380000000     0.956360000000     0.351790000000     0.0307252  
C93      C      0.674540000000     0.961390000000     0.619590000000     0.0313212  
C94      C      0.739470000000     0.987260000000     0.644840000000     0.0318405  
C95      C      0.741380000000     0.956360000000     0.678870000000     0.0307302  
C96      C      0.678010000000     0.928460000000     0.651440000000     0.0314228  
C97      C      0.073100000000     0.834910000000     0.385770000000     0.0316231  
C98      C      0.098880000000     0.769950000000     0.411040000000     0.0313996  
C99      C      0.131790000000     0.773330000000     0.379150000000     0.0313955  
C100     C      0.103960000000     0.836730000000     0.351690000000     0.0309061  
C101     C      0.098880000000     0.769950000000     0.619650000000     0.0313905  
C102     C      0.073090000000     0.834910000000     0.644920000000     0.0316753  
C103     C      0.103950000000     0.836740000000     0.679000000000     0.0308205  
C104     C      0.131790000000     0.773340000000     0.651540000000     0.0314751  
C105     C      0.865690000000     0.770250000000     0.619600000000     0.0313607  
C106     C      0.891560000000     0.835180000000     0.644840000000     0.0314609  
C107     C      0.860660000000     0.837080000000     0.678880000000     0.0307975  
C108     C      0.832750000000     0.773710000000     0.651440000000     0.0312818  
C109     C      0.891560000000     0.835180000000     0.385840000000     0.0314205  
C110     C      0.865690000000     0.770240000000     0.411090000000     0.0312381  
C111     C      0.832760000000     0.773710000000     0.379240000000     0.0313917  
C112     C      0.860660000000     0.837080000000     0.351810000000     0.0307892  
C113     C      0.224610000000     0.168200000000     0.385840000000     0.0315546  
C114     C      0.289540000000     0.194070000000     0.411090000000     0.0313545  
C115     C      0.286080000000     0.227000000000     0.379240000000     0.0313768  
C116     C      0.222710000000     0.199090000000     0.351800000000     0.030776   
C117     C      0.224610000000     0.168200000000     0.644850000000     0.0315423  
C118     C      0.289540000000     0.194070000000     0.619600000000     0.0313747  
C119     C      0.286080000000     0.227000000000     0.651440000000     0.0313321  
C120     C      0.222710000000     0.199090000000     0.678880000000     0.030807   
C121     C      0.223030000000     0.955810000000     0.679000000000     0.0307301  
C122     C      0.286430000000     0.927970000000     0.651540000000     0.0313472  
C123     C      0.289820000000     0.960880000000     0.619660000000     0.0314243  
C124     C      0.224860000000     0.986670000000     0.644920000000     0.0318601  
C125     C      0.224860000000     0.986660000000     0.385770000000     0.0317797  
C126     C      0.289820000000     0.960870000000     0.411040000000     0.0314231  
C127     C      0.286430000000     0.927960000000     0.379150000000     0.0313451  
C128     C      0.223040000000     0.955800000000     0.351690000000     0.0308026  
C129     C      0.789540000000     0.461380000000     0.119580000000     0.0313441  
C130     C      0.724610000000     0.487250000000     0.144830000000     0.0315197  
C131     C      0.722710000000     0.456360000000     0.178870000000     0.0307615  
C132     C      0.786080000000     0.428440000000     0.151420000000     0.0312703  
C133     C      0.724870000000     0.668780000000     0.144920000000     0.0315376  
C134     C      0.789830000000     0.694570000000     0.119650000000     0.0313047  
C135     C      0.786440000000     0.727480000000     0.151540000000     0.0313154  
C136     C      0.723040000000     0.699640000000     0.179000000000     0.0307585  
C137     C      0.789820000000     0.694580000000     0.911030000000     0.0313227  
C138     C      0.724860000000     0.668800000000     0.885760000000     0.0315819  
C139     C      0.723030000000     0.699660000000     0.851680000000     0.0307797  
C140     C      0.786430000000     0.727490000000     0.879140000000     0.0313682  
C141     C      0.724610000000     0.487260000000     0.885820000000     0.0315445  
C142     C      0.789540000000     0.461390000000     0.911070000000     0.031413   
C143     C      0.786080000000     0.428450000000     0.879230000000     0.0312475  
C144     C      0.722700000000     0.456370000000     0.851790000000     0.0307742  
C145     C      0.598880000000     0.885500000000     0.119650000000     0.0313558  
C146     C      0.573100000000     0.820540000000     0.144910000000     0.0315509  
C147     C      0.603960000000     0.818720000000     0.178990000000     0.0307849  
C148     C      0.631790000000     0.882120000000     0.151530000000     0.0313251  
C149     C      0.391560000000     0.820270000000     0.144850000000     0.0315034  
C150     C      0.365690000000     0.885210000000     0.119610000000     0.0313095  
C151     C      0.332750000000     0.881740000000     0.151450000000     0.0313718  
C152     C      0.360670000000     0.818370000000     0.178880000000     0.0308251  
C153     C      0.365680000000     0.885210000000     0.911090000000     0.031423   
C154     C      0.391560000000     0.820280000000     0.885850000000     0.031551   
C155     C      0.360660000000     0.818370000000     0.851810000000     0.0308194  
C156     C      0.332750000000     0.881750000000     0.879250000000     0.0313384  
C157     C      0.573090000000     0.820550000000     0.885760000000     0.0315586  
C158     C      0.598870000000     0.885510000000     0.911030000000     0.0314022  
C159     C      0.631780000000     0.882130000000     0.879140000000     0.0313565  
C160     C      0.603950000000     0.818730000000     0.851680000000     0.0308477  
C161     C      0.239480000000     0.668190000000     0.144850000000     0.0315072  
C162     C      0.174550000000     0.694070000000     0.119610000000     0.0313972  
C163     C      0.178010000000     0.727000000000     0.151450000000     0.0313495  
C164     C      0.241380000000     0.699090000000     0.178890000000     0.0308642  
C165     C      0.174270000000     0.460870000000     0.119650000000     0.0313643  
C166     C      0.239230000000     0.486660000000     0.144910000000     0.0315697  
C167     C      0.241060000000     0.455800000000     0.178990000000     0.0307942  
C168     C      0.177660000000     0.427960000000     0.151530000000     0.0313664  
C169     C      0.174260000000     0.460880000000     0.911030000000     0.0313761  
C170     C      0.239220000000     0.486670000000     0.885760000000     0.0315922  
C171     C      0.241050000000     0.455810000000     0.851680000000     0.030826   
C172     C      0.177650000000     0.427980000000     0.879140000000     0.0314329  
C173     C      0.174540000000     0.694080000000     0.911090000000     0.0313563  
C174     C      0.239470000000     0.668200000000     0.885840000000     0.0315936  
C175     C      0.241380000000     0.699100000000     0.851810000000     0.0308254  
C176     C      0.178010000000     0.727010000000     0.879250000000     0.0314619  
C177     C      0.365210000000     0.269940000000     0.119640000000     0.0312978  
C178     C      0.391000000000     0.334910000000     0.144910000000     0.031511   
C179     C      0.360140000000     0.336730000000     0.179000000000     0.0308086  
C180     C      0.332310000000     0.273330000000     0.151530000000     0.0313608  
C181     C      0.603430000000     0.337080000000     0.178860000000     0.030832   
C182     C      0.631340000000     0.273710000000     0.151420000000     0.0313936  
C183     C      0.598410000000     0.270240000000     0.119580000000     0.0312349  
C184     C      0.572530000000     0.335180000000     0.144830000000     0.0314885  
C185     C      0.598400000000     0.270250000000     0.911070000000     0.0314063  
C186     C      0.572520000000     0.335180000000     0.885830000000     0.0315717  
C187     C      0.603420000000     0.337090000000     0.851790000000     0.0308018  
C188     C      0.631330000000     0.273710000000     0.879230000000     0.031313   
C189     C      0.365200000000     0.269950000000     0.911030000000     0.0313289  
C190     C      0.390980000000     0.334920000000     0.885760000000     0.0315413  
C191     C      0.360130000000     0.336740000000     0.851680000000     0.0308076  
C192     C      0.332300000000     0.273340000000     0.879140000000     0.031425   
Cu1      Cu     0.481810000000     0.262060000000     0.015330000000     0.833724   
Cu2      Cu     0.481700000000     0.338930000000     0.015330000000     0.864435   
Cu3      Cu     0.166360000000     0.577470000000     0.015350000000     0.833964   
Cu4      Cu     0.243230000000     0.577380000000     0.015340000000     0.864371   
Cu5      Cu     0.482380000000     0.816530000000     0.015340000000     0.864483   
Cu6      Cu     0.482280000000     0.893400000000     0.015350000000     0.833853   
Cu7      Cu     0.720850000000     0.578080000000     0.015330000000     0.864547   
Cu8      Cu     0.797720000000     0.577980000000     0.015330000000     0.833616   
Cu9      Cu     0.220850000000     0.077380000000     0.515340000000     0.865232   
Cu10     Cu     0.297720000000     0.077470000000     0.515340000000     0.834206   
Cu11     Cu     0.982280000000     0.762060000000     0.515340000000     0.832461   
Cu12     Cu     0.982380000000     0.838930000000     0.515340000000     0.863262   
Cu13     Cu     0.666360000000     0.077980000000     0.515330000000     0.834105   
Cu14     Cu     0.743230000000     0.078080000000     0.515330000000     0.864861   
Cu15     Cu     0.981710000000     0.316530000000     0.515330000000     0.86323    
Cu16     Cu     0.981810000000     0.393400000000     0.515330000000     0.83248    
Cu17     Cu     0.253940000000     0.349600000000     0.290490000000     0.849306   
Cu18     Cu     0.209700000000     0.305360000000     0.240360000000     0.849261   
Cu19     Cu     0.709700000000     0.350090000000     0.290310000000     0.849227   
Cu20     Cu     0.753940000000     0.305840000000     0.240170000000     0.849218   
Cu21     Cu     0.753930000000     0.305850000000     0.790480000000     0.849297   
Cu22     Cu     0.709690000000     0.350100000000     0.740350000000     0.849124   
Cu23     Cu     0.754400000000     0.850090000000     0.240360000000     0.849037   
Cu24     Cu     0.710160000000     0.805840000000     0.290500000000     0.849399   
Cu25     Cu     0.754390000000     0.850100000000     0.790320000000     0.849194   
Cu26     Cu     0.710150000000     0.805850000000     0.740180000000     0.849345   
Cu27     Cu     0.254400000000     0.805360000000     0.290330000000     0.849238   
Cu28     Cu     0.210150000000     0.849600000000     0.240190000000     0.849571   
Cu29     Cu     0.210150000000     0.849610000000     0.790500000000     0.849466   
Cu30     Cu     0.254390000000     0.805370000000     0.740370000000     0.849124   
Cu31     Cu     0.253930000000     0.349610000000     0.740180000000     0.849294   
Cu32     Cu     0.209690000000     0.305370000000     0.790320000000     0.849325   
H1       H      0.050160000000     0.295060000000     0.643150000000     0.0366743  
H2       H      0.097380000000     0.412120000000     0.596760000000     0.0370473  
H3       H      0.154380000000     0.406340000000     0.652580000000     0.0373257  
H4       H      0.104110000000     0.291320000000     0.701510000000     0.0373433  
H5       H      0.050160000000     0.295060000000     0.387510000000     0.0366558  
H6       H      0.097380000000     0.412110000000     0.433910000000     0.0370768  
H7       H      0.154390000000     0.406340000000     0.378090000000     0.037297   
H8       H      0.104120000000     0.291310000000     0.329150000000     0.0373299  
H9       H      0.866250000000     0.412390000000     0.433880000000     0.0369051  
H10      H      0.913320000000     0.295280000000     0.387440000000     0.0362917  
H11      H      0.859420000000     0.291680000000     0.329010000000     0.037152   
H12      H      0.809290000000     0.406750000000     0.377980000000     0.0372304  
H13      H      0.866250000000     0.412390000000     0.596780000000     0.0369311  
H14      H      0.913310000000     0.295290000000     0.643220000000     0.0363285  
H15      H      0.859420000000     0.291680000000     0.701650000000     0.0371427  
H16      H      0.809280000000     0.406760000000     0.652670000000     0.0372152  
H17      H      0.647380000000     0.193540000000     0.596780000000     0.0369472  
H18      H      0.764480000000     0.146470000000     0.643220000000     0.036408   
H19      H      0.768090000000     0.200360000000     0.701650000000     0.0371935  
H20      H      0.653020000000     0.250510000000     0.652680000000     0.0372679  
H21      H      0.647380000000     0.193540000000     0.433880000000     0.0369369  
H22      H      0.764480000000     0.146460000000     0.387440000000     0.0364128  
H23      H      0.768100000000     0.200350000000     0.329010000000     0.0371625  
H24      H      0.653030000000     0.250500000000     0.377980000000     0.0372889  
H25      H      0.764690000000     0.009630000000     0.387510000000     0.0362337  
H26      H      0.647640000000     0.962400000000     0.433910000000     0.0370337  
H27      H      0.653410000000     0.905400000000     0.378090000000     0.0372587  
H28      H      0.768440000000     0.955670000000     0.329150000000     0.0372364  
H29      H      0.647640000000     0.962410000000     0.596760000000     0.0370289  
H30      H      0.764690000000     0.009630000000     0.643160000000     0.0362286  
H31      H      0.768430000000     0.955680000000     0.701520000000     0.0372527  
H32      H      0.653410000000     0.905400000000     0.652580000000     0.0372682  
H33      H      0.050770000000     0.860160000000     0.387460000000     0.0367006  
H34      H      0.097840000000     0.743060000000     0.433900000000     0.0370535  
H35      H      0.154800000000     0.748700000000     0.378000000000     0.037302   
H36      H      0.104670000000     0.863770000000     0.329030000000     0.0373265  
H37      H      0.097840000000     0.743060000000     0.596790000000     0.0370558  
H38      H      0.050770000000     0.860170000000     0.643230000000     0.0366869  
H39      H      0.104660000000     0.863780000000     0.701660000000     0.0373627  
H40      H      0.154800000000     0.748700000000     0.652690000000     0.0372877  
H41      H      0.866700000000     0.743340000000     0.596770000000     0.0368988  
H42      H      0.913920000000     0.860390000000     0.643160000000     0.036346   
H43      H      0.859970000000     0.864140000000     0.701520000000     0.03716    
H44      H      0.809700000000     0.749120000000     0.652590000000     0.03726    
H45      H      0.913930000000     0.860390000000     0.387520000000     0.0363466  
H46      H      0.866710000000     0.743340000000     0.433920000000     0.0369377  
H47      H      0.809700000000     0.749110000000     0.378100000000     0.0372255  
H48      H      0.859970000000     0.864130000000     0.329160000000     0.0371498  
H49      H      0.199400000000     0.145830000000     0.387520000000     0.0365136  
H50      H      0.316450000000     0.193050000000     0.433920000000     0.0369585  
H51      H      0.310670000000     0.250050000000     0.378100000000     0.0372603  
H52      H      0.195660000000     0.199780000000     0.329160000000     0.0372736  
H53      H      0.199400000000     0.145830000000     0.643170000000     0.0365217  
H54      H      0.316450000000     0.193050000000     0.596770000000     0.0369559  
H55      H      0.310670000000     0.250060000000     0.652580000000     0.0372809  
H56      H      0.195650000000     0.199790000000     0.701520000000     0.0372907  
H57      H      0.195990000000     0.955100000000     0.701670000000     0.0373598  
H58      H      0.311060000000     0.904950000000     0.652690000000     0.0372896  
H59      H      0.316710000000     0.961910000000     0.596790000000     0.036994   
H60      H      0.199610000000     0.008990000000     0.643230000000     0.036327   
H61      H      0.199610000000     0.008990000000     0.387460000000     0.0363404  
H62      H      0.316710000000     0.961910000000     0.433900000000     0.0369948  
H63      H      0.311060000000     0.904950000000     0.378000000000     0.037275   
H64      H      0.196000000000     0.955090000000     0.329030000000     0.0373231  
H65      H      0.816450000000     0.462390000000     0.096750000000     0.036823   
H66      H      0.699400000000     0.509620000000     0.143150000000     0.0364633  
H67      H      0.695660000000     0.455670000000     0.201510000000     0.0372315  
H68      H      0.810670000000     0.405390000000     0.152570000000     0.0371727  
H69      H      0.699610000000     0.646460000000     0.143230000000     0.0364527  
H70      H      0.816710000000     0.693530000000     0.096790000000     0.0368318  
H71      H      0.811070000000     0.750490000000     0.152690000000     0.0371645  
H72      H      0.696000000000     0.700350000000     0.201660000000     0.0372256  
H73      H      0.816700000000     0.693540000000     0.933890000000     0.0369441  
H74      H      0.699600000000     0.646470000000     0.887450000000     0.036491   
H75      H      0.695990000000     0.700370000000     0.829020000000     0.0372499  
H76      H      0.811060000000     0.750510000000     0.877990000000     0.0372158  
H77      H      0.699390000000     0.509640000000     0.887510000000     0.0365106  
H78      H      0.816450000000     0.462400000000     0.933900000000     0.0369239  
H79      H      0.810670000000     0.405400000000     0.878080000000     0.0372466  
H80      H      0.695650000000     0.455680000000     0.829150000000     0.037253   
H81      H      0.597840000000     0.912390000000     0.096790000000     0.0369128  
H82      H      0.550780000000     0.795280000000     0.143220000000     0.0364607  
H83      H      0.604680000000     0.791670000000     0.201650000000     0.0372284  
H84      H      0.654800000000     0.906750000000     0.152680000000     0.0372419  
H85      H      0.413930000000     0.795060000000     0.143160000000     0.036489   
H86      H      0.366700000000     0.912120000000     0.096780000000     0.0369559  
H87      H      0.309700000000     0.906340000000     0.152600000000     0.0372778  
H88      H      0.359980000000     0.791310000000     0.201520000000     0.0372267  
H89      H      0.366690000000     0.912120000000     0.933930000000     0.0370455  
H90      H      0.413930000000     0.795070000000     0.887530000000     0.03652    
H91      H      0.359970000000     0.791320000000     0.829170000000     0.0372477  
H92      H      0.309690000000     0.906340000000     0.878110000000     0.0373568  
H93      H      0.550770000000     0.795290000000     0.887450000000     0.0365056  
H94      H      0.597830000000     0.912400000000     0.933890000000     0.037016   
H95      H      0.654790000000     0.906760000000     0.877990000000     0.0372933  
H96      H      0.604660000000     0.791690000000     0.829010000000     0.0372352  
H97      H      0.264690000000     0.645820000000     0.143170000000     0.0364863  
H98      H      0.147640000000     0.693050000000     0.096770000000     0.037015   
H99      H      0.153420000000     0.750060000000     0.152590000000     0.0373526  
H100     H      0.268440000000     0.699780000000     0.201530000000     0.037218   
H101     H      0.147380000000     0.461910000000     0.096790000000     0.0370023  
H102     H      0.264480000000     0.508980000000     0.143220000000     0.036465   
H103     H      0.268100000000     0.455090000000     0.201650000000     0.0372354  
H104     H      0.153030000000     0.404950000000     0.152680000000     0.0373261  
H105     H      0.147370000000     0.461920000000     0.933890000000     0.0371141  
H106     H      0.264470000000     0.508990000000     0.887450000000     0.0365042  
H107     H      0.268090000000     0.455100000000     0.829010000000     0.0372518  
H108     H      0.153020000000     0.404960000000     0.877990000000     0.0373756  
H109     H      0.147640000000     0.693060000000     0.933930000000     0.0371334  
H110     H      0.264690000000     0.645830000000     0.887520000000     0.0365064  
H111     H      0.268430000000     0.699790000000     0.829160000000     0.0372546  
H112     H      0.153410000000     0.750070000000     0.878110000000     0.0373867  
H113     H      0.366260000000     0.243060000000     0.096780000000     0.0369242  
H114     H      0.413320000000     0.360160000000     0.143230000000     0.0364657  
H115     H      0.359430000000     0.363770000000     0.201660000000     0.0372212  
H116     H      0.309300000000     0.248700000000     0.152680000000     0.0372452  
H117     H      0.604110000000     0.364140000000     0.201510000000     0.0372139  
H118     H      0.654400000000     0.249110000000     0.152560000000     0.0372009  
H119     H      0.597390000000     0.243340000000     0.096750000000     0.0369187  
H120     H      0.550160000000     0.360390000000     0.143150000000     0.0364787  
H121     H      0.597380000000     0.243340000000     0.933900000000     0.0369965  
H122     H      0.550150000000     0.360400000000     0.887510000000     0.0364998  
H123     H      0.604110000000     0.364140000000     0.829150000000     0.0372462  
H124     H      0.654390000000     0.249120000000     0.878080000000     0.0372908  
H125     H      0.366250000000     0.243070000000     0.933890000000     0.03703    
H126     H      0.413310000000     0.360170000000     0.887450000000     0.0365077  
H127     H      0.359410000000     0.363780000000     0.829020000000     0.0372483  
H128     H      0.309280000000     0.248710000000     0.877990000000     0.037295   
N1       N      0.070060000000     0.353670000000     0.615320000000    -0.176021   
N2       N      0.133600000000     0.348330000000     0.681010000000    -0.175739   
N3       N      0.070060000000     0.353660000000     0.415340000000    -0.176012   
N4       N      0.133610000000     0.348330000000     0.349650000000    -0.175766   
N5       N      0.893480000000     0.353900000000     0.415300000000    -0.17608    
N6       N      0.830010000000     0.348730000000     0.349520000000    -0.175755   
N7       N      0.893480000000     0.353910000000     0.615360000000    -0.176076   
N8       N      0.830000000000     0.348730000000     0.681140000000    -0.175827   
N9       N      0.705860000000     0.166300000000     0.615360000000    -0.176098   
N10      N      0.711040000000     0.229780000000     0.681140000000    -0.175751   
N11      N      0.705860000000     0.166300000000     0.415300000000    -0.17608    
N12      N      0.711050000000     0.229780000000     0.349510000000    -0.175758   
N13      N      0.706090000000     0.989720000000     0.415340000000    -0.175969   
N14      N      0.711420000000     0.926180000000     0.349650000000    -0.175787   
N15      N      0.706090000000     0.989720000000     0.615330000000    -0.175954   
N16      N      0.711420000000     0.926190000000     0.681020000000    -0.175764   
N17      N      0.070600000000     0.801550000000     0.415310000000    -0.175941   
N18      N      0.134080000000     0.806720000000     0.349530000000    -0.175768   
N19      N      0.070600000000     0.801550000000     0.615380000000    -0.176      
N20      N      0.134080000000     0.806720000000     0.681160000000    -0.17577    
N21      N      0.894020000000     0.801790000000     0.615340000000    -0.176076   
N22      N      0.830480000000     0.807130000000     0.681020000000    -0.175781   
N23      N      0.894020000000     0.801790000000     0.415350000000    -0.176002   
N24      N      0.830490000000     0.807120000000     0.349660000000    -0.175781   
N25      N      0.258000000000     0.165730000000     0.415350000000    -0.176096   
N26      N      0.252670000000     0.229270000000     0.349660000000    -0.175789   
N27      N      0.258000000000     0.165730000000     0.615340000000    -0.176094   
N28      N      0.252660000000     0.229280000000     0.681020000000    -0.175756   
N29      N      0.253040000000     0.925680000000     0.681160000000    -0.17572    
N30      N      0.258220000000     0.989150000000     0.615380000000    -0.175988   
N31      N      0.258230000000     0.989150000000     0.415310000000    -0.17598    
N32      N      0.253040000000     0.925670000000     0.349530000000    -0.175788   
N33      N      0.758000000000     0.489720000000     0.115320000000    -0.176112   
N34      N      0.752670000000     0.426180000000     0.181010000000    -0.175767   
N35      N      0.758230000000     0.666300000000     0.115370000000    -0.176101   
N36      N      0.753050000000     0.729770000000     0.181160000000    -0.175778   
N37      N      0.758220000000     0.666310000000     0.915300000000    -0.176007   
N38      N      0.753040000000     0.729790000000     0.849520000000    -0.175794   
N39      N      0.758000000000     0.489730000000     0.915340000000    -0.176061   
N40      N      0.752660000000     0.426190000000     0.849640000000    -0.175702   
N41      N      0.570610000000     0.853900000000     0.115370000000    -0.17606    
N42      N      0.634090000000     0.848730000000     0.181150000000    -0.175778   
N43      N      0.394030000000     0.853660000000     0.115340000000    -0.176046   
N44      N      0.330480000000     0.848320000000     0.181030000000    -0.175819   
N45      N      0.394020000000     0.853670000000     0.915360000000    -0.176005   
N46      N      0.330480000000     0.848330000000     0.849660000000    -0.17579    
N47      N      0.570600000000     0.853910000000     0.915300000000    -0.176004   
N48      N      0.634070000000     0.848740000000     0.849520000000    -0.17577    
N49      N      0.206090000000     0.665730000000     0.115340000000    -0.176055   
N50      N      0.211430000000     0.729270000000     0.181030000000    -0.175774   
N51      N      0.205870000000     0.489150000000     0.115370000000    -0.176082   
N52      N      0.211050000000     0.425670000000     0.181150000000    -0.175771   
N53      N      0.205860000000     0.489160000000     0.915300000000    -0.176018   
N54      N      0.211040000000     0.425680000000     0.849520000000    -0.175781   
N55      N      0.206090000000     0.665740000000     0.915360000000    -0.176043   
N56      N      0.211420000000     0.729280000000     0.849660000000    -0.17581    
N57      N      0.393490000000     0.301540000000     0.115370000000    -0.176078   
N58      N      0.330010000000     0.306720000000     0.181150000000    -0.175796   
N59      N      0.633610000000     0.307120000000     0.181010000000    -0.175812   
N60      N      0.570070000000     0.301790000000     0.115320000000    -0.176023   
N61      N      0.570060000000     0.301790000000     0.915340000000    -0.176056   
N62      N      0.633600000000     0.307130000000     0.849640000000    -0.175795   
N63      N      0.393480000000     0.301550000000     0.915300000000    -0.176043   
N64      N      0.330000000000     0.306730000000     0.849530000000    -0.175763   
O1       O      0.527160000000     0.265990000000     0.065080000000    -0.391069   
O2       O      0.436440000000     0.265870000000     0.965570000000    -0.390798   
O3       O      0.527160000000     0.265990000000     0.965570000000    -0.390842   
O4       O      0.436450000000     0.265860000000     0.065090000000    -0.391058   
O5       O      0.437950000000     0.335240000000     0.065890000000    -0.39912    
O6       O      0.525470000000     0.335370000000     0.964780000000    -0.39891    
O7       O      0.437950000000     0.335250000000     0.964780000000    -0.398899   
O8       O      0.525470000000     0.335370000000     0.065880000000    -0.398975   
O9       O      0.170290000000     0.622830000000     0.965600000000    -0.390673   
O10      O      0.170180000000     0.532110000000     0.065100000000    -0.391056   
O11      O      0.170290000000     0.622830000000     0.065100000000    -0.390963   
O12      O      0.170170000000     0.532110000000     0.965590000000    -0.390803   
O13      O      0.239550000000     0.533630000000     0.964780000000    -0.398877   
O14      O      0.239670000000     0.621140000000     0.065900000000    -0.399108   
O15      O      0.239560000000     0.533620000000     0.065890000000    -0.399073   
O16      O      0.239670000000     0.621150000000     0.964790000000    -0.398838   
O17      O      0.526130000000     0.820210000000     0.065890000000    -0.39912    
O18      O      0.438620000000     0.820080000000     0.964790000000    -0.398808   
O19      O      0.526130000000     0.820210000000     0.964780000000    -0.398916   
O20      O      0.438620000000     0.820080000000     0.065900000000    -0.399052   
O21      O      0.436930000000     0.889460000000     0.065100000000    -0.391128   
O22      O      0.527640000000     0.889590000000     0.965590000000    -0.390863   
O23      O      0.436920000000     0.889470000000     0.965600000000    -0.39074    
O24      O      0.527640000000     0.889590000000     0.065100000000    -0.391089   
O25      O      0.724420000000     0.534310000000     0.065880000000    -0.399162   
O26      O      0.724530000000     0.621830000000     0.964780000000    -0.398935   
O27      O      0.724410000000     0.534320000000     0.964780000000    -0.398894   
O28      O      0.724530000000     0.621830000000     0.065890000000    -0.399022   
O29      O      0.793910000000     0.623340000000     0.065090000000    -0.39116    
O30      O      0.793790000000     0.532630000000     0.965570000000    -0.390953   
O31      O      0.793910000000     0.623350000000     0.965580000000    -0.390907   
O32      O      0.793790000000     0.532620000000     0.065080000000    -0.391169   
O33      O      0.224530000000     0.033630000000     0.565900000000    -0.399097   
O34      O      0.224420000000     0.121140000000     0.464790000000    -0.39921    
O35      O      0.224530000000     0.033630000000     0.464790000000    -0.399164   
O36      O      0.224420000000     0.121140000000     0.565890000000    -0.399179   
O37      O      0.293790000000     0.122830000000     0.565100000000    -0.391105   
O38      O      0.293910000000     0.032110000000     0.465590000000    -0.391142   
O39      O      0.293790000000     0.122830000000     0.465590000000    -0.391154   
O40      O      0.293910000000     0.032110000000     0.565100000000    -0.391087   
O41      O      0.936930000000     0.765990000000     0.465590000000    -0.390995   
O42      O      0.027650000000     0.765870000000     0.565100000000    -0.390187   
O43      O      0.936930000000     0.765990000000     0.565100000000    -0.390918   
O44      O      0.027650000000     0.765860000000     0.465590000000    -0.390244   
O45      O      0.026130000000     0.835250000000     0.464790000000    -0.398255   
O46      O      0.938620000000     0.835370000000     0.565900000000    -0.398993   
O47      O      0.026130000000     0.835250000000     0.565900000000    -0.398264   
O48      O      0.938620000000     0.835370000000     0.464790000000    -0.399079   
O49      O      0.670290000000     0.032630000000     0.565090000000    -0.39103    
O50      O      0.670170000000     0.123350000000     0.465570000000    -0.390964   
O51      O      0.670290000000     0.032630000000     0.465580000000    -0.391066   
O52      O      0.670170000000     0.123350000000     0.565090000000    -0.391053   
O53      O      0.739560000000     0.121830000000     0.565890000000    -0.399084   
O54      O      0.739670000000     0.034310000000     0.464780000000    -0.399143   
O55      O      0.739560000000     0.121830000000     0.464780000000    -0.399158   
O56      O      0.739670000000     0.034310000000     0.565880000000    -0.399132   
O57      O      0.937950000000     0.320210000000     0.464780000000    -0.399077   
O58      O      0.025470000000     0.320090000000     0.565880000000    -0.398397   
O59      O      0.937950000000     0.320210000000     0.565890000000    -0.39903    
O60      O      0.025470000000     0.320090000000     0.464780000000    -0.398395   
O61      O      0.027160000000     0.389460000000     0.465580000000    -0.39038    
O62      O      0.936440000000     0.389590000000     0.565090000000    -0.39098    
O63      O      0.027160000000     0.389460000000     0.565090000000    -0.39035    
O64      O      0.936440000000     0.389590000000     0.465570000000    -0.391011   
O65      O      0.239650000000     0.396980000000     0.246950000000    -0.397276   
O66      O      0.265140000000     0.297140000000     0.328670000000    -0.392931   
O67      O      0.301320000000     0.335310000000     0.246950000000    -0.397354   
O68      O      0.201480000000     0.360810000000     0.328670000000    -0.392838   
O69      O      0.162320000000     0.319650000000     0.283900000000    -0.397329   
O70      O      0.262160000000     0.294160000000     0.202170000000    -0.392791   
O71      O      0.224000000000     0.257980000000     0.283900000000    -0.397353   
O72      O      0.198500000000     0.357820000000     0.202170000000    -0.392789   
O73      O      0.662320000000     0.335790000000     0.246760000000    -0.397353   
O74      O      0.762160000000     0.361280000000     0.328490000000    -0.39299    
O75      O      0.724000000000     0.397470000000     0.246760000000    -0.397322   
O76      O      0.698490000000     0.297630000000     0.328490000000    -0.392788   
O77      O      0.739650000000     0.258470000000     0.283710000000    -0.397368   
O78      O      0.765150000000     0.358300000000     0.201990000000    -0.392872   
O79      O      0.801320000000     0.320130000000     0.283720000000    -0.397416   
O80      O      0.701480000000     0.294640000000     0.201990000000    -0.392961   
O81      O      0.701470000000     0.294650000000     0.828660000000    -0.392931   
O82      O      0.801310000000     0.320140000000     0.746940000000    -0.397403   
O83      O      0.765140000000     0.358310000000     0.828660000000    -0.392915   
O84      O      0.739640000000     0.258470000000     0.746940000000    -0.397374   
O85      O      0.698490000000     0.297630000000     0.702160000000    -0.39282    
O86      O      0.723990000000     0.397480000000     0.783890000000    -0.397338   
O87      O      0.762150000000     0.361290000000     0.702160000000    -0.392811   
O88      O      0.662310000000     0.335800000000     0.783890000000    -0.397301   
O89      O      0.801780000000     0.835790000000     0.283900000000    -0.397297   
O90      O      0.701940000000     0.861280000000     0.202170000000    -0.392799   
O91      O      0.740100000000     0.897470000000     0.283900000000    -0.397391   
O92      O      0.765600000000     0.797620000000     0.202170000000    -0.392758   
O93      O      0.724450000000     0.758460000000     0.246960000000    -0.397366   
O94      O      0.698950000000     0.858310000000     0.328670000000    -0.392899   
O95      O      0.662780000000     0.820130000000     0.246950000000    -0.397318   
O96      O      0.762610000000     0.794640000000     0.328680000000    -0.392841   
O97      O      0.765590000000     0.797640000000     0.828500000000    -0.392861   
O98      O      0.740090000000     0.897480000000     0.746770000000    -0.397303   
O99      O      0.701920000000     0.861290000000     0.828500000000    -0.392901   
O100     O      0.801770000000     0.835800000000     0.746780000000    -0.397342   
O101     O      0.762610000000     0.794650000000     0.702000000000    -0.392901   
O102     O      0.662770000000     0.820140000000     0.783720000000    -0.397328   
O103     O      0.698940000000     0.858310000000     0.702000000000    -0.392794   
O104     O      0.724440000000     0.758470000000     0.783730000000    -0.397392   
O105     O      0.201930000000     0.794170000000     0.328510000000    -0.392904   
O106     O      0.301780000000     0.819650000000     0.246780000000    -0.397344   
O107     O      0.265590000000     0.857820000000     0.328510000000    -0.392877   
O108     O      0.240100000000     0.757980000000     0.246790000000    -0.397296   
O109     O      0.198950000000     0.797140000000     0.202010000000    -0.392886   
O110     O      0.224440000000     0.896980000000     0.283730000000    -0.397294   
O111     O      0.262610000000     0.860800000000     0.202010000000    -0.392855   
O112     O      0.162780000000     0.835320000000     0.283730000000    -0.39735    
O113     O      0.262610000000     0.860810000000     0.828680000000    -0.392889   
O114     O      0.162770000000     0.835320000000     0.746960000000    -0.397278   
O115     O      0.198940000000     0.797150000000     0.828680000000    -0.392853   
O116     O      0.224440000000     0.896990000000     0.746960000000    -0.397322   
O117     O      0.265590000000     0.857830000000     0.702180000000    -0.392867   
O118     O      0.240090000000     0.757990000000     0.783910000000    -0.397287   
O119     O      0.201930000000     0.794170000000     0.702180000000    -0.392765   
O120     O      0.301770000000     0.819660000000     0.783910000000    -0.397307   
O121     O      0.301310000000     0.335320000000     0.783730000000    -0.397376   
O122     O      0.201470000000     0.360810000000     0.702000000000    -0.392884   
O123     O      0.239640000000     0.396990000000     0.783720000000    -0.397292   
O124     O      0.265140000000     0.297150000000     0.702000000000    -0.392874   
O125     O      0.223990000000     0.257990000000     0.746780000000    -0.397283   
O126     O      0.198490000000     0.357830000000     0.828500000000    -0.392803   
O127     O      0.162310000000     0.319660000000     0.746770000000    -0.397208   
O128     O      0.262150000000     0.294170000000     0.828510000000    -0.392743   


