data_structure

_audit_creation_method RASPA-1.0
_audit_creation_date 2023-5-23
_audit_author_name 'Poobodin Mano'

_cell_length_a    32.4905
_cell_length_b    32.4812
_cell_length_c    32.4796
_cell_angle_alpha 90
_cell_angle_beta  90
_cell_angle_gamma 90
_cell_volume      34276.7

_symmetry_cell_setting          triclinic
_symmetry_space_group_name_Hall 'P 1'
_symmetry_space_group_name_H-M  'P 1'
_symmetry_Int_Tables_number     1

_symmetry_equiv_pos_as_xyz 'x,y,z'

loop_
_atom_site_label
_atom_site_type_symbol
_atom_site_fract_x
_atom_site_fract_y
_atom_site_fract_z
_atom_site_charge
C1       C      0.589640000000     0.338040000000     0.011460000000     0.401124   
C2       C      0.753370000000     0.336340000000     0.008430000000     0.403601   
C3       C      0.670710000000     0.255260000000     0.012040000000     0.402463   
C4       C      0.672970000000     0.419110000000     0.008160000000     0.40133    
C5       C      0.419210000000     0.338390000000     0.009960000000     0.401053   
C6       C      0.255380000000     0.338930000000     0.005060000000     0.40236    
C7       C      0.337420000000     0.256680000000     0.010330000000     0.402349   
C8       C      0.337780000000     0.420500000000     0.004550000000     0.401337   
C9       C      0.759990000000     0.671610000000     0.006550000000     0.402261   
C10      C      0.596120000000     0.671350000000     0.001420000000     0.401146   
C11      C      0.677910000000     0.589460000000     0.005020000000     0.401297   
C12      C      0.677740000000     0.753360000000     0.002860000000     0.402756   
C13      C      0.425640000000     0.672030000000     0.001510000000     0.401437   
C14      C      0.261730000000     0.674270000000     0.006560000000     0.403569   
C15      C      0.344380000000     0.754910000000     0.005880000000     0.403504   
C16      C      0.342180000000     0.590930000000     0.002520000000     0.401719   
C17      C      0.597090000000     0.015990000000     0.676060000000     0.401072   
C18      C      0.761090000000     0.012710000000     0.674920000000     0.402546   
C19      C      0.679490000000     0.012090000000     0.757250000000     0.402608   
C20      C      0.678370000000     0.015930000000     0.593200000000     0.401271   
C21      C      0.426650000000     0.015590000000     0.678590000000     0.401428   
C22      C      0.262800000000     0.011290000000     0.679840000000     0.40377    
C23      C      0.344900000000     0.011470000000     0.761200000000     0.402615   
C24      C      0.343610000000     0.015050000000     0.597170000000     0.401234   
C25      C      0.256390000000     0.011120000000     0.345060000000     0.402494   
C26      C      0.420190000000     0.008840000000     0.344310000000     0.400764   
C27      C      0.338920000000     0.013070000000     0.426750000000     0.400584   
C28      C      0.338170000000     0.007150000000     0.262980000000     0.402318   
C29      C      0.754390000000     0.010120000000     0.339920000000     0.402373   
C30      C      0.590590000000     0.008480000000     0.341960000000     0.400906   
C31      C      0.673890000000     0.013230000000     0.422740000000     0.400613   
C32      C      0.671430000000     0.005420000000     0.258990000000     0.401988   
C33      C      0.007640000000     0.676170000000     0.759080000000     0.403679   
C34      C      0.004430000000     0.680210000000     0.595060000000     0.400931   
C35      C      0.003710000000     0.596290000000     0.675000000000     0.401869   
C36      C      0.008610000000     0.760170000000     0.680190000000     0.403195   
C37      C      0.004840000000     0.425860000000     0.672330000000     0.401341   
C38      C      0.011010000000     0.262040000000     0.670730000000     0.40206    
C39      C      0.004960000000     0.343940000000     0.753640000000     0.402732   
C40      C      0.010610000000     0.344570000000     0.589900000000     0.402133   
C41      C      0.005470000000     0.676870000000     0.424450000000     0.4005     
C42      C      0.010280000000     0.674270000000     0.260630000000     0.403455   
C43      C      0.006190000000     0.757370000000     0.340900000000     0.402419   
C44      C      0.009760000000     0.593460000000     0.342550000000     0.400664   
C45      C      0.006950000000     0.337230000000     0.255680000000     0.402483   
C46      C      0.011560000000     0.343680000000     0.419550000000     0.402696   
C47      C      0.010550000000     0.423040000000     0.335550000000     0.401276   
C48      C      0.008250000000     0.259170000000     0.340940000000     0.40437    
C49      C      0.922360000000     0.337680000000     0.005380000000     0.404736   
C50      C      0.085970000000     0.339110000000     0.003750000000     0.40148    
C51      C      0.002940000000     0.342180000000     0.922910000000     0.401611   
C52      C      0.004330000000     0.334880000000     0.086460000000     0.401342   
C53      C      0.929370000000     0.672690000000     0.010160000000     0.40241    
C54      C      0.092580000000     0.674730000000     0.009570000000     0.403358   
C55      C      0.010520000000     0.674350000000     0.928290000000     0.403446   
C56      C      0.011670000000     0.673250000000     0.091410000000     0.403956   
C57      C      0.087300000000     0.008820000000     0.342600000000     0.40447    
C58      C      0.923680000000     0.009060000000     0.340590000000     0.404465   
C59      C      0.006040000000     0.090200000000     0.343510000000     0.405615   
C60      C      0.005400000000     0.926710000000     0.339530000000     0.404104   
C61      C      0.930370000000     0.011340000000     0.675850000000     0.4041     
C62      C      0.093920000000     0.010210000000     0.678030000000     0.405153   
C63      C      0.012010000000     0.929240000000     0.681070000000     0.404409   
C64      C      0.013260000000     0.092690000000     0.672480000000     0.403574   
C65      C      0.672530000000     0.085860000000     0.010860000000     0.402718   
C66      C      0.675390000000     0.922690000000     0.005160000000     0.4005     
C67      C      0.672090000000     0.001770000000     0.089640000000     0.400042   
C68      C      0.676120000000     0.007010000000     0.926470000000     0.400052   
C69      C      0.340700000000     0.087310000000     0.013340000000     0.402611   
C70      C      0.342420000000     0.924090000000     0.010560000000     0.403221   
C71      C      0.340720000000     0.004360000000     0.093650000000     0.400156   
C72      C      0.342490000000     0.007080000000     0.930430000000     0.400088   
C73      C      0.033730000000     0.152550000000     0.318790000000     0.0320722  
C74      C      0.981280000000     0.153890000000     0.369220000000     0.0336752  
C75      C      0.980120000000     0.196870000000     0.366640000000     0.0336461  
C76      C      0.035440000000     0.195380000000     0.319370000000     0.0317926  
C77      C      0.977230000000     0.358250000000     0.149730000000     0.0336099  
C78      C      0.030500000000     0.308730000000     0.149460000000     0.0311576  
C79      C      0.032840000000     0.311310000000     0.192440000000     0.0315315  
C80      C      0.976710000000     0.357570000000     0.192670000000     0.0332939  
C81      C      0.974450000000     0.486610000000     0.339070000000     0.031604   
C82      C      0.046950000000     0.486970000000     0.336020000000     0.0299143  
C83      C      0.046750000000     0.530030000000     0.338220000000     0.0298898  
C84      C      0.974250000000     0.529460000000     0.341410000000     0.0314532  
C85      C      0.031790000000     0.820940000000     0.365200000000     0.03129    
C86      C      0.979740000000     0.820210000000     0.314390000000     0.0328791  
C87      C      0.981410000000     0.863250000000     0.312200000000     0.0333461  
C88      C      0.030470000000     0.863810000000     0.365900000000     0.0317812  
C89      C      0.984760000000     0.648710000000     0.197390000000     0.0331587  
C90      C      0.038590000000     0.697650000000     0.197600000000     0.0311081  
C91      C      0.037470000000     0.698900000000     0.154630000000     0.0311212  
C92      C      0.986420000000     0.647070000000     0.154510000000     0.0329571  
C93      C      0.048210000000     0.343160000000     0.483370000000     0.030213   
C94      C      0.975690000000     0.346390000000     0.483110000000     0.0317878  
C95      C      0.975430000000     0.346580000000     0.525920000000     0.0317153  
C96      C      0.047950000000     0.343260000000     0.526500000000     0.0301148  
C97      C      0.976950000000     0.319170000000     0.816210000000     0.0328706  
C98      C      0.028820000000     0.370160000000     0.817410000000     0.0314697  
C99      C      0.026690000000     0.371330000000     0.860370000000     0.0312733  
C100     C      0.977820000000     0.317470000000     0.859160000000     0.0334362  
C101     C      0.987250000000     0.198200000000     0.644380000000     0.0331365  
C102     C      0.039320000000     0.199460000000     0.695130000000     0.0309686  
C103     C      0.038540000000     0.156510000000     0.696830000000     0.031615   
C104     C      0.989460000000     0.155210000000     0.643170000000     0.0331528  
C105     C      0.967990000000     0.681350000000     0.531060000000     0.0315763  
C106     C      0.040480000000     0.678060000000     0.531430000000     0.029718   
C107     C      0.040740000000     0.676950000000     0.488550000000     0.0297706  
C108     C      0.968270000000     0.680360000000     0.487910000000     0.0316418  
C109     C      0.039600000000     0.532740000000     0.672010000000     0.0300376  
C110     C      0.967090000000     0.532390000000     0.675250000000     0.0318166  
C111     C      0.967390000000     0.489240000000     0.674640000000     0.031745   
C112     C      0.039900000000     0.489930000000     0.671310000000     0.0298934  
C113     C      0.983000000000     0.823700000000     0.705580000000     0.0335126  
C114     C      0.039050000000     0.822800000000     0.659210000000     0.0316725  
C115     C      0.038780000000     0.865700000000     0.658190000000     0.0321483  
C116     C      0.985550000000     0.866650000000     0.707780000000     0.0333885  
C117     C      0.037200000000     0.652600000000     0.821480000000     0.0318446  
C118     C      0.980570000000     0.698240000000     0.822960000000     0.0335483  
C119     C      0.982610000000     0.699340000000     0.865860000000     0.0330877  
C120     C      0.036550000000     0.650530000000     0.864450000000     0.0312694  
C121     C      0.817810000000     0.036470000000     0.315070000000     0.0310415  
C122     C      0.817330000000     0.983980000000     0.365440000000     0.0334913  
C123     C      0.860220000000     0.984980000000     0.366900000000     0.0335094  
C124     C      0.860780000000     0.034580000000     0.313690000000     0.0311105  
C125     C      0.646370000000     0.029880000000     0.195090000000     0.0313485  
C126     C      0.695150000000     0.975960000000     0.196540000000     0.0331708  
C127     C      0.696820000000     0.976440000000     0.153520000000     0.0330303  
C128     C      0.645090000000     0.027550000000     0.152200000000     0.0307135  
C129     C      0.484040000000     0.044600000000     0.345400000000     0.0298094  
C130     C      0.483760000000     0.972090000000     0.341770000000     0.032018   
C131     C      0.526810000000     0.972000000000     0.341170000000     0.032041   
C132     C      0.526940000000     0.044510000000     0.344750000000     0.0298398  
C133     C      0.150250000000     0.987930000000     0.372540000000     0.0342851  
C134     C      0.150490000000     0.032450000000     0.314970000000     0.0317917  
C135     C      0.193390000000     0.035050000000     0.317240000000     0.0311473  
C136     C      0.193200000000     0.987120000000     0.371990000000     0.0337152  
C137     C      0.363600000000     0.032550000000     0.199680000000     0.0312227  
C138     C      0.315320000000     0.978150000000     0.199930000000     0.033126   
C139     C      0.314470000000     0.978860000000     0.156880000000     0.0329197  
C140     C      0.365660000000     0.030530000000     0.156840000000     0.0307656  
C141     C      0.343980000000     0.978760000000     0.533730000000     0.0318712  
C142     C      0.339840000000     0.051240000000     0.533150000000     0.0299359  
C143     C      0.338430000000     0.050710000000     0.490030000000     0.0299183  
C144     C      0.342680000000     0.978240000000     0.490900000000     0.0318113  
C145     C      0.321030000000     0.037940000000     0.824750000000     0.0315325  
C146     C      0.367000000000     0.981560000000     0.823940000000     0.0338482  
C147     C      0.367910000000     0.981790000000     0.866950000000     0.033256   
C148     C      0.318750000000     0.035400000000     0.867620000000     0.0309057  
C149     C      0.199350000000     0.035810000000     0.705490000000     0.0319799  
C150     C      0.200280000000     0.984380000000     0.653970000000     0.0339243  
C151     C      0.157360000000     0.985910000000     0.651810000000     0.0345109  
C152     C      0.156450000000     0.034040000000     0.706420000000     0.032167   
C153     C      0.673660000000     0.978780000000     0.487170000000     0.0319438  
C154     C      0.677520000000     0.051250000000     0.485750000000     0.0298812  
C155     C      0.678670000000     0.051960000000     0.528910000000     0.0299232  
C156     C      0.674990000000     0.979470000000     0.529970000000     0.0318846  
C157     C      0.490250000000     0.052590000000     0.678600000000     0.0299841  
C158     C      0.490520000000     0.980020000000     0.676780000000     0.0319441  
C159     C      0.533370000000     0.980110000000     0.676070000000     0.0318464  
C160     C      0.533350000000     0.052690000000     0.677910000000     0.0299038  
C161     C      0.824370000000     0.039910000000     0.698470000000     0.031505   
C162     C      0.824130000000     0.983780000000     0.652180000000     0.0337469  
C163     C      0.867140000000     0.984960000000     0.650700000000     0.0334625  
C164     C      0.867260000000     0.038300000000     0.700170000000     0.0311966  
C165     C      0.655890000000     0.981670000000     0.819100000000     0.0338204  
C166     C      0.701110000000     0.038590000000     0.821700000000     0.0316068  
C167     C      0.701820000000     0.035960000000     0.864650000000     0.0309259  
C168     C      0.653400000000     0.981740000000     0.862020000000     0.0331694  
C169     C      0.320890000000     0.818560000000     0.979340000000     0.033392   
C170     C      0.366660000000     0.817520000000     0.035880000000     0.0318972  
C171     C      0.367660000000     0.860510000000     0.035770000000     0.0311983  
C172     C      0.318720000000     0.861410000000     0.981940000000     0.0330266  
C173     C      0.155280000000     0.699840000000     0.982280000000     0.0330504  
C174     C      0.156120000000     0.650640000000     0.035890000000     0.0311712  
C175     C      0.199080000000     0.652140000000     0.036530000000     0.0318185  
C176     C      0.198170000000     0.698140000000     0.980160000000     0.0334407  
C177     C      0.489480000000     0.669760000000     0.037010000000     0.0299269  
C178     C      0.489290000000     0.673300000000     0.964500000000     0.0316763  
C179     C      0.532440000000     0.673220000000     0.964480000000     0.0317512  
C180     C      0.532310000000     0.669550000000     0.036980000000     0.0298523  
C181     C      0.651730000000     0.815890000000     0.029430000000     0.0315411  
C182     C      0.701240000000     0.817220000000     0.976160000000     0.0329973  
C183     C      0.702250000000     0.860230000000     0.978350000000     0.0326871  
C184     C      0.649860000000     0.858770000000     0.028790000000     0.0309921  
C185     C      0.822440000000     0.695600000000     0.035780000000     0.0310852  
C186     C      0.823960000000     0.647700000000     0.981080000000     0.0330984  
C187     C      0.866860000000     0.646520000000     0.983340000000     0.0327673  
C188     C      0.865430000000     0.697390000000     0.035310000000     0.0309207  
C189     C      0.337490000000     0.483760000000     0.966910000000     0.031789   
C190     C      0.340910000000     0.484680000000     0.039420000000     0.029868   
C191     C      0.342130000000     0.527510000000     0.038880000000     0.0299301  
C192     C      0.338770000000     0.526880000000     0.966360000000     0.0316787  
C193     C      0.149370000000     0.313420000000     0.978210000000     0.0325454  
C194     C      0.149040000000     0.365750000000     0.028730000000     0.0307786  
C195     C      0.191960000000     0.364320000000     0.030380000000     0.0312724  
C196     C      0.192370000000     0.314880000000     0.977040000000     0.0327665  
C197     C      0.363510000000     0.193440000000     0.985310000000     0.0328791  
C198     C      0.314560000000     0.193520000000     0.039100000000     0.0308813  
C199     C      0.313970000000     0.150470000000     0.038460000000     0.0308852  
C200     C      0.365810000000     0.150600000000     0.987460000000     0.0327348  
C201     C      0.676670000000     0.525090000000     0.969820000000     0.0317063  
C202     C      0.676210000000     0.526430000000     0.042420000000     0.0299568  
C203     C      0.674580000000     0.483490000000     0.043170000000     0.0299029  
C204     C      0.675450000000     0.482100000000     0.970580000000     0.0317738  
C205     C      0.526170000000     0.340520000000     0.975260000000     0.0316324  
C206     C      0.525650000000     0.336200000000     0.047730000000     0.029942   
C207     C      0.482540000000     0.336260000000     0.047330000000     0.0299379  
C208     C      0.483310000000     0.340550000000     0.974860000000     0.0316203  
C209     C      0.816650000000     0.363750000000     0.031580000000     0.0316103  
C210     C      0.816170000000     0.309920000000     0.982590000000     0.0331958  
C211     C      0.859150000000     0.308830000000     0.983510000000     0.0340503  
C212     C      0.859500000000     0.365530000000     0.029150000000     0.0321374  
C213     C      0.646560000000     0.191910000000     0.985420000000     0.0330549  
C214     C      0.694580000000     0.192140000000     0.040040000000     0.0307864  
C215     C      0.696670000000     0.149170000000     0.038230000000     0.0308549  
C216     C      0.645760000000     0.148980000000     0.986290000000     0.0326439  
Cu1      Cu     0.670700000000     0.335860000000     0.972220000000     0.852918   
Cu2      Cu     0.672630000000     0.338310000000     0.048010000000     0.841927   
Cu3      Cu     0.335860000000     0.340000000000     0.045330000000     0.845002   
Cu4      Cu     0.338550000000     0.336990000000     0.969600000000     0.848153   
Cu5      Cu     0.676730000000     0.672330000000     0.041730000000     0.851158   
Cu6      Cu     0.679580000000     0.670710000000     0.965940000000     0.842597   
Cu7      Cu     0.342160000000     0.674090000000     0.965940000000     0.843113   
Cu8      Cu     0.344940000000     0.671990000000     0.041940000000     0.855476   
Cu9      Cu     0.678180000000     0.976350000000     0.674210000000     0.858682   
Cu10     Cu     0.680190000000     0.052360000000     0.676470000000     0.838428   
Cu11     Cu     0.343320000000     0.051510000000     0.680390000000     0.84064    
Cu12     Cu     0.345820000000     0.975500000000     0.678180000000     0.857971   
Cu13     Cu     0.337370000000     0.972200000000     0.346330000000     0.850153   
Cu14     Cu     0.338970000000     0.047960000000     0.343180000000     0.843745   
Cu15     Cu     0.671940000000     0.047230000000     0.338790000000     0.841983   
Cu16     Cu     0.673270000000     0.971510000000     0.342730000000     0.85194    
Cu17     Cu     0.967910000000     0.679700000000     0.678280000000     0.84169    
Cu18     Cu     0.043880000000     0.676990000000     0.676220000000     0.856178   
Cu19     Cu     0.970000000000     0.342250000000     0.670300000000     0.848038   
Cu20     Cu     0.045680000000     0.345510000000     0.673360000000     0.846139   
Cu21     Cu     0.045740000000     0.676620000000     0.343680000000     0.846896   
Cu22     Cu     0.970000000000     0.674450000000     0.341010000000     0.846017   
Cu23     Cu     0.971470000000     0.341740000000     0.338870000000     0.857769   
Cu24     Cu     0.047470000000     0.340070000000     0.336260000000     0.841232   
Cu25     Cu     0.003800000000     0.376330000000     0.006990000000     0.844669   
Cu26     Cu     0.004450000000     0.300510000000     0.002330000000     0.838648   
Cu27     Cu     0.010510000000     0.711410000000     0.010130000000     0.840216   
Cu28     Cu     0.011520000000     0.636100000000     0.009600000000     0.839702   
Cu29     Cu     0.005940000000     0.010050000000     0.303550000000     0.843737   
Cu30     Cu     0.004990000000     0.007020000000     0.379460000000     0.846188   
Cu31     Cu     0.012670000000     0.008270000000     0.638950000000     0.843324   
Cu32     Cu     0.011680000000     0.013570000000     0.714730000000     0.844935   
Cu33     Cu     0.636450000000     0.003640000000     0.007080000000     0.839943   
Cu34     Cu     0.711730000000     0.004890000000     0.009000000000     0.832175   
Cu35     Cu     0.303910000000     0.005350000000     0.011670000000     0.835531   
Cu36     Cu     0.379200000000     0.005970000000     0.012410000000     0.838351   
H1       H      0.054970000000     0.136010000000     0.299000000000     0.0352452  
H2       H      0.959710000000     0.138350000000     0.389440000000     0.0359828  
H3       H      0.958230000000     0.213540000000     0.385560000000     0.0358978  
H4       H      0.057560000000     0.210730000000     0.299600000000     0.0354821  
H5       H      0.955290000000     0.377780000000     0.133820000000     0.0352437  
H6       H      0.052030000000     0.288970000000     0.133290000000     0.0352037  
H7       H      0.055600000000     0.292810000000     0.208400000000     0.0349991  
H8       H      0.954750000000     0.376980000000     0.208690000000     0.035993   
H9       H      0.944960000000     0.470990000000     0.339600000000     0.0386722  
H10      H      0.076440000000     0.471480000000     0.334040000000     0.0386259  
H11      H      0.076110000000     0.545890000000     0.337700000000     0.038712   
H12      H      0.944640000000     0.544720000000     0.343440000000     0.0386987  
H13      H      0.052480000000     0.805310000000     0.386250000000     0.0364531  
H14      H      0.959050000000     0.803870000000     0.293890000000     0.036409   
H15      H      0.961350000000     0.879060000000     0.290690000000     0.0364707  
H16      H      0.050580000000     0.879980000000     0.387120000000     0.035956   
H17      H      0.963160000000     0.628800000000     0.213280000000     0.036644   
H18      H      0.059840000000     0.717800000000     0.213650000000     0.0367547  
H19      H      0.058400000000     0.719470000000     0.138690000000     0.0370026  
H20      H      0.965600000000     0.626430000000     0.138510000000     0.0370464  
H21      H      0.077690000000     0.341730000000     0.467800000000     0.0387144  
H22      H      0.946190000000     0.347670000000     0.467550000000     0.03893    
H23      H      0.945760000000     0.347980000000     0.541150000000     0.0389512  
H24      H      0.077250000000     0.341960000000     0.542420000000     0.038781   
H25      H      0.956650000000     0.298360000000     0.799780000000     0.0364356  
H26      H      0.049760000000     0.391030000000     0.801870000000     0.0365738  
H27      H      0.046560000000     0.392520000000     0.876850000000     0.036666   
H28      H      0.957690000000     0.295790000000     0.874670000000     0.035958   
H29      H      0.966170000000     0.213720000000     0.623630000000     0.036565   
H30      H      0.059680000000     0.215890000000     0.715890000000     0.036367   
H31      H      0.058770000000     0.141040000000     0.718440000000     0.0355766  
H32      H      0.969510000000     0.138690000000     0.622080000000     0.0365028  
H33      H      0.938500000000     0.683010000000     0.546570000000     0.038519   
H34      H      0.069960000000     0.677040000000     0.547050000000     0.0388095  
H35      H      0.070400000000     0.675230000000     0.473330000000     0.0387966  
H36      H      0.938960000000     0.681360000000     0.471990000000     0.0385293  
H37      H      0.069100000000     0.548340000000     0.670900000000     0.0390559  
H38      H      0.937610000000     0.547930000000     0.676830000000     0.03852    
H39      H      0.938120000000     0.473260000000     0.675760000000     0.0386288  
H40      H      0.069590000000     0.474760000000     0.669730000000     0.0390895  
H41      H      0.960190000000     0.808000000000     0.724250000000     0.0354526  
H42      H      0.060900000000     0.806510000000     0.639900000000     0.0359938  
H43      H      0.060780000000     0.881340000000     0.638500000000     0.0353286  
H44      H      0.964130000000     0.883090000000     0.727430000000     0.0361401  
H45      H      0.059490000000     0.634090000000     0.804880000000     0.0361679  
H46      H      0.957740000000     0.717160000000     0.807590000000     0.0359046  
H47      H      0.960850000000     0.718530000000     0.882400000000     0.0372101  
H48      H      0.058810000000     0.631000000000     0.879890000000     0.036911   
H49      H      0.802010000000     0.057460000000     0.294450000000     0.0365813  
H50      H      0.801200000000     0.963220000000     0.386040000000     0.0369271  
H51      H      0.875920000000     0.964510000000     0.388120000000     0.0374139  
H52      H      0.877010000000     0.054720000000     0.292560000000     0.0370176  
H53      H      0.626400000000     0.051790000000     0.210470000000     0.0365914  
H54      H      0.715130000000     0.954930000000     0.213090000000     0.0366386  
H55      H      0.717550000000     0.955310000000     0.138070000000     0.0367539  
H56      H      0.624670000000     0.048220000000     0.135730000000     0.0370899  
H57      H      0.468640000000     0.074170000000     0.347090000000     0.0389208  
H58      H      0.468010000000     0.942690000000     0.340520000000     0.0385936  
H59      H      0.542390000000     0.942530000000     0.339470000000     0.0385826  
H60      H      0.542510000000     0.074020000000     0.345990000000     0.0389334  
H61      H      0.134160000000     0.969370000000     0.395170000000     0.0350639  
H62      H      0.134520000000     0.050370000000     0.291750000000     0.0346219  
H63      H      0.209510000000     0.054260000000     0.295180000000     0.0354589  
H64      H      0.209150000000     0.968330000000     0.394550000000     0.035771   
H65      H      0.383150000000     0.054520000000     0.215520000000     0.0368297  
H66      H      0.295310000000     0.956790000000     0.216000000000     0.0366696  
H67      H      0.294330000000     0.957540000000     0.140910000000     0.0369832  
H68      H      0.386210000000     0.051480000000     0.140890000000     0.0371944  
H69      H      0.346160000000     0.949370000000     0.549410000000     0.0387359  
H70      H      0.338600000000     0.080810000000     0.548590000000     0.0387316  
H71      H      0.336250000000     0.079900000000     0.474000000000     0.0388084  
H72      H      0.343930000000     0.948490000000     0.475800000000     0.0387016  
H73      H      0.302420000000     0.060820000000     0.809080000000     0.0353661  
H74      H      0.386060000000     0.959520000000     0.807620000000     0.0361031  
H75      H      0.387180000000     0.959490000000     0.882670000000     0.0368603  
H76      H      0.299000000000     0.056870000000     0.883890000000     0.0365307  
H77      H      0.215040000000     0.056360000000     0.726640000000     0.0345018  
H78      H      0.216740000000     0.964120000000     0.633130000000     0.0350725  
H79      H      0.141640000000     0.966240000000     0.629860000000     0.034496   
H80      H      0.140040000000     0.053690000000     0.727880000000     0.0345558  
H81      H      0.671690000000     0.948950000000     0.472310000000     0.0388172  
H82      H      0.678620000000     0.080380000000     0.469490000000     0.0386025  
H83      H      0.680620000000     0.081590000000     0.544170000000     0.0384664  
H84      H      0.673890000000     0.950120000000     0.545840000000     0.0389575  
H85      H      0.474480000000     0.081990000000     0.679580000000     0.0386503  
H86      H      0.475150000000     0.950390000000     0.676280000000     0.0387756  
H87      H      0.548860000000     0.950560000000     0.675090000000     0.0387398  
H88      H      0.549000000000     0.082160000000     0.678410000000     0.0386971  
H89      H      0.808490000000     0.062380000000     0.717400000000     0.0356924  
H90      H      0.808030000000     0.961550000000     0.633160000000     0.0360302  
H91      H      0.883100000000     0.963100000000     0.631130000000     0.0368393  
H92      H      0.883280000000     0.059990000000     0.719880000000     0.0365888  
H93      H      0.637630000000     0.959480000000     0.802090000000     0.0363203  
H94      H      0.719950000000     0.061770000000     0.806750000000     0.0354249  
H95      H      0.720690000000     0.057610000000     0.881700000000     0.0366793  
H96      H      0.633850000000     0.959140000000     0.876930000000     0.0370417  
H97      H      0.302310000000     0.802990000000     0.956370000000     0.0358622  
H98      H      0.385610000000     0.801120000000     0.057960000000     0.0361604  
H99      H      0.386870000000     0.876130000000     0.058190000000     0.0369919  
H100     H      0.299100000000     0.877770000000     0.960420000000     0.0371341  
H101     H      0.138950000000     0.719340000000     0.960630000000     0.0368516  
H102     H      0.140460000000     0.631110000000     0.057990000000     0.0365706  
H103     H      0.215440000000     0.633190000000     0.058650000000     0.0360175  
H104     H      0.213810000000     0.716910000000     0.957380000000     0.0356836  
H105     H      0.474090000000     0.668350000000     0.066610000000     0.0389681  
H106     H      0.473540000000     0.674830000000     0.935120000000     0.0385352  
H107     H      0.548170000000     0.674650000000     0.935080000000     0.0384837  
H108     H      0.547710000000     0.668020000000     0.066560000000     0.0389888  
H109     H      0.631650000000     0.799420000000     0.050440000000     0.0368172  
H110     H      0.721690000000     0.801750000000     0.954770000000     0.0365363  
H111     H      0.722920000000     0.876830000000     0.958050000000     0.0371778  
H112     H      0.628850000000     0.874090000000     0.049750000000     0.0374229  
H113     H      0.805870000000     0.715150000000     0.057200000000     0.0366936  
H114     H      0.808630000000     0.627980000000     0.958900000000     0.0369983  
H115     H      0.883370000000     0.626450000000     0.962370000000     0.0377224  
H116     H      0.880820000000     0.717750000000     0.056840000000     0.0371005  
H117     H      0.335690000000     0.467720000000     0.937690000000     0.0385273  
H118     H      0.341860000000     0.469590000000     0.069190000000     0.0389252  
H119     H      0.343940000000     0.543230000000     0.068280000000     0.0389861  
H120     H      0.337830000000     0.542290000000     0.936770000000     0.0384867  
H121     H      0.133530000000     0.292560000000     0.957500000000     0.03661    
H122     H      0.132980000000     0.386540000000     0.049350000000     0.0368844  
H123     H      0.207740000000     0.384540000000     0.051780000000     0.0366636  
H124     H      0.208500000000     0.294600000000     0.955970000000     0.0364412  
H125     H      0.383240000000     0.209360000000     0.963570000000     0.0368445  
H126     H      0.294190000000     0.209520000000     0.060180000000     0.0363342  
H127     H      0.293620000000     0.134440000000     0.059540000000     0.0365323  
H128     H      0.386710000000     0.134720000000     0.966800000000     0.0371856  
H129     H      0.677410000000     0.540130000000     0.940030000000     0.0387872  
H130     H      0.676430000000     0.542540000000     0.071660000000     0.0386185  
H131     H      0.673800000000     0.468500000000     0.072990000000     0.0387604  
H132     H      0.675250000000     0.465940000000     0.941370000000     0.0386876  
H133     H      0.541860000000     0.342250000000     0.945840000000     0.0389174  
H134     H      0.541100000000     0.334410000000     0.077260000000     0.0385546  
H135     H      0.466570000000     0.334530000000     0.076590000000     0.0386144  
H136     H      0.468150000000     0.342330000000     0.945170000000     0.0388367  
H137     H      0.800810000000     0.385570000000     0.051290000000     0.0358821  
H138     H      0.799940000000     0.287870000000     0.963460000000     0.0358199  
H139     H      0.875050000000     0.286390000000     0.964550000000     0.0352386  
H140     H      0.875670000000     0.388220000000     0.047570000000     0.0350969  
H141     H      0.626720000000     0.207750000000     0.963720000000     0.036862   
H142     H      0.714090000000     0.208210000000     0.061860000000     0.0367205  
H143     H      0.717180000000     0.133260000000     0.059240000000     0.0368845  
H144     H      0.625790000000     0.133010000000     0.964810000000     0.0373988  
N1       N      0.007190000000     0.132080000000     0.344250000000    -0.177767   
N2       N      0.007820000000     0.217270000000     0.342330000000    -0.177468   
N3       N      0.003730000000     0.333420000000     0.128390000000    -0.176871   
N4       N      0.005480000000     0.335260000000     0.213750000000    -0.176886   
N5       N      0.010760000000     0.465310000000     0.336550000000    -0.175875   
N6       N      0.010360000000     0.551220000000     0.340980000000    -0.175739   
N7       N      0.005660000000     0.799350000000     0.340240000000    -0.176914   
N8       N      0.005920000000     0.884740000000     0.338840000000    -0.177219   
N9       N      0.011370000000     0.673440000000     0.218690000000    -0.177371   
N10      N      0.011930000000     0.673020000000     0.133370000000    -0.177374   
N11      N      0.012010000000     0.344520000000     0.461770000000    -0.176305   
N12      N      0.011490000000     0.344840000000     0.547680000000    -0.176158   
N13      N      0.003470000000     0.344510000000     0.795600000000    -0.177023   
N14      N      0.002240000000     0.343970000000     0.880980000000    -0.176857   
N15      N      0.012640000000     0.220060000000     0.669950000000    -0.176756   
N16      N      0.014020000000     0.134630000000     0.670460000000    -0.177119   
N17      N      0.004150000000     0.680060000000     0.552760000000    -0.175702   
N18      N      0.004690000000     0.678010000000     0.466720000000    -0.175669   
N19      N      0.003270000000     0.554050000000     0.674040000000    -0.176052   
N20      N      0.003870000000     0.468100000000     0.672730000000    -0.1759     
N21      N      0.010210000000     0.802070000000     0.681750000000    -0.177145   
N22      N      0.012420000000     0.887350000000     0.682880000000    -0.17733    
N23      N      0.008510000000     0.675650000000     0.801030000000    -0.177342   
N24      N      0.009920000000     0.674710000000     0.886340000000    -0.177067   
N25      N      0.796360000000     0.010350000000     0.340180000000    -0.177274   
N26      N      0.881710000000     0.009510000000     0.340300000000    -0.177517   
N27      N      0.670860000000     0.003580000000     0.217040000000    -0.177218   
N28      N      0.671220000000     0.001720000000     0.131630000000    -0.176769   
N29      N      0.462420000000     0.008420000000     0.343870000000    -0.176114   
N30      N      0.548350000000     0.008240000000     0.342620000000    -0.176092   
N31      N      0.129210000000     0.009640000000     0.343270000000    -0.17768    
N32      N      0.214460000000     0.011390000000     0.344950000000    -0.17724    
N33      N      0.339040000000     0.005810000000     0.221020000000    -0.177339   
N34      N      0.340300000000     0.004470000000     0.135640000000    -0.17686    
N35      N      0.342570000000     0.015200000000     0.554920000000    -0.176182   
N36      N      0.339900000000     0.014150000000     0.468990000000    -0.176011   
N37      N      0.344380000000     0.010350000000     0.803150000000    -0.177395   
N38      N      0.343010000000     0.008040000000     0.888470000000    -0.17674    
N39      N      0.220940000000     0.010280000000     0.679930000000    -0.177642   
N40      N      0.135790000000     0.010030000000     0.678730000000    -0.177887   
N41      N      0.674960000000     0.014590000000     0.464980000000    -0.175979   
N42      N      0.677430000000     0.016000000000     0.550940000000    -0.176109   
N43      N      0.468890000000     0.016210000000     0.678030000000    -0.17617    
N44      N      0.554850000000     0.016400000000     0.676650000000    -0.176104   
N45      N      0.803050000000     0.012010000000     0.675220000000    -0.177264   
N46      N      0.888400000000     0.011550000000     0.675490000000    -0.177358   
N47      N      0.678910000000     0.010780000000     0.799200000000    -0.177382   
N48      N      0.677140000000     0.008240000000     0.884530000000    -0.176723   
N49      N      0.344070000000     0.796850000000     0.006990000000    -0.177359   
N50      N      0.342890000000     0.882150000000     0.009470000000    -0.177017   
N51      N      0.134520000000     0.675160000000     0.009320000000    -0.177129   
N52      N      0.219810000000     0.674940000000     0.007860000000    -0.177341   
N53      N      0.467890000000     0.671660000000     0.000840000000    -0.175902   
N54      N      0.553870000000     0.671360000000     0.000780000000    -0.175864   
N55      N      0.676830000000     0.795340000000     0.002580000000    -0.177128   
N56      N      0.675900000000     0.880720000000     0.004060000000    -0.176553   
N57      N      0.801970000000     0.671580000000     0.007900000000    -0.17697    
N58      N      0.887380000000     0.672170000000     0.009690000000    -0.176783   
N59      N      0.338630000000     0.462740000000     0.003490000000    -0.175924   
N60      N      0.341090000000     0.548680000000     0.002410000000    -0.175978   
N61      N      0.127970000000     0.339460000000     0.003490000000    -0.176831   
N62      N      0.213400000000     0.339460000000     0.003990000000    -0.177018   
N63      N      0.338490000000     0.214710000000     0.011690000000    -0.176997   
N64      N      0.340220000000     0.129310000000     0.013220000000    -0.177034   
N65      N      0.677060000000     0.547230000000     0.005750000000    -0.175975   
N66      N      0.674250000000     0.461330000000     0.007260000000    -0.175976   
N67      N      0.547390000000     0.338290000000     0.011640000000    -0.175877   
N68      N      0.461450000000     0.338400000000     0.010840000000    -0.175893   
N69      N      0.795270000000     0.336640000000     0.007500000000    -0.17729    
N70      N      0.880460000000     0.337340000000     0.005980000000    -0.177512   
N71      N      0.670430000000     0.213260000000     0.012760000000    -0.177044   
N72      N      0.671670000000     0.127850000000     0.011870000000    -0.176982   
O1       O      0.608890000000     0.339970000000     0.977000000000    -0.395883   
O2       O      0.733090000000     0.330950000000     0.974930000000    -0.392827   
O3       O      0.665840000000     0.273990000000     0.977620000000    -0.394405   
O4       O      0.674770000000     0.398440000000     0.974420000000    -0.392375   
O5       O      0.670230000000     0.400360000000     0.042850000000    -0.394884   
O6       O      0.676040000000     0.275620000000     0.045550000000    -0.392341   
O7       O      0.734700000000     0.341850000000     0.042780000000    -0.394201   
O8       O      0.609840000000     0.335740000000     0.045470000000    -0.391523   
O9       O      0.398530000000     0.336540000000     0.043670000000    -0.392499   
O10      O      0.273930000000     0.344270000000     0.039510000000    -0.394857   
O11      O      0.331750000000     0.277370000000     0.043570000000    -0.392624   
O12      O      0.339480000000     0.401870000000     0.039390000000    -0.395941   
O13      O      0.335560000000     0.399700000000     0.970940000000    -0.391347   
O14      O      0.342560000000     0.275060000000     0.975750000000    -0.393746   
O15      O      0.275910000000     0.333140000000     0.971740000000    -0.391303   
O16      O      0.400460000000     0.340240000000     0.975190000000    -0.394462   
O17      O      0.739270000000     0.676400000000     0.039890000000    -0.393841   
O18      O      0.614950000000     0.669110000000     0.036090000000    -0.397357   
O19      O      0.679770000000     0.609810000000     0.038940000000    -0.394597   
O20      O      0.672650000000     0.734240000000     0.037010000000    -0.396447   
O21      O      0.683320000000     0.733410000000     0.969130000000    -0.390203   
O22      O      0.676470000000     0.608550000000     0.970420000000    -0.3927     
O23      O      0.616740000000     0.673660000000     0.967670000000    -0.389643   
O24      O      0.741630000000     0.666830000000     0.971890000000    -0.392072   
O25      O      0.405040000000     0.673240000000     0.967700000000    -0.390284   
O26      O      0.280070000000     0.675920000000     0.971620000000    -0.393062   
O27      O      0.342020000000     0.736330000000     0.971080000000    -0.392537   
O28      O      0.341310000000     0.611170000000     0.968460000000    -0.389986   
O29      O      0.343900000000     0.610110000000     0.037010000000    -0.398688   
O30      O      0.346610000000     0.734510000000     0.039670000000    -0.395441   
O31      O      0.282330000000     0.671900000000     0.040230000000    -0.394847   
O32      O      0.406820000000     0.671250000000     0.036260000000    -0.397953   
O33      O      0.616170000000     0.981390000000     0.674870000000    -0.395778   
O34      O      0.740860000000     0.978780000000     0.672790000000    -0.392203   
O35      O      0.677640000000     0.978380000000     0.736690000000    -0.394274   
O36      O      0.677680000000     0.981430000000     0.612400000000    -0.397742   
O37      O      0.679690000000     0.049980000000     0.613440000000    -0.39029    
O38      O      0.681420000000     0.047000000000     0.738800000000    -0.392595   
O39      O      0.742330000000     0.047390000000     0.677070000000    -0.394358   
O40      O      0.617420000000     0.049960000000     0.676800000000    -0.392071   
O41      O      0.406140000000     0.049450000000     0.679600000000    -0.392184   
O42      O      0.281250000000     0.046120000000     0.682070000000    -0.394518   
O43      O      0.342980000000     0.046300000000     0.742630000000    -0.393621   
O44      O      0.342570000000     0.049070000000     0.617460000000    -0.391163   
O45      O      0.345370000000     0.980540000000     0.616310000000    -0.397135   
O46      O      0.346940000000     0.977680000000     0.740760000000    -0.393338   
O47      O      0.283200000000     0.977520000000     0.677360000000    -0.393011   
O48      O      0.407760000000     0.980890000000     0.678000000000    -0.396249   
O49      O      0.275410000000     0.977030000000     0.350860000000    -0.393544   
O50      O      0.399930000000     0.974870000000     0.342570000000    -0.391635   
O51      O      0.341150000000     0.978250000000     0.408140000000    -0.394771   
O52      O      0.332940000000     0.973870000000     0.283710000000    -0.39125    
O53      O      0.343030000000     0.041790000000     0.281300000000    -0.395146   
O54      O      0.336040000000     0.046630000000     0.405930000000    -0.392093   
O55      O      0.401010000000     0.043360000000     0.346360000000    -0.395011   
O56      O      0.276360000000     0.044750000000     0.339150000000    -0.392094   
O57      O      0.734460000000     0.043780000000     0.333970000000    -0.392118   
O58      O      0.609950000000     0.042930000000     0.343110000000    -0.395073   
O59      O      0.676080000000     0.046600000000     0.401530000000    -0.391472   
O60      O      0.666900000000     0.040320000000     0.276940000000    -0.393865   
O61      O      0.676600000000     0.972370000000     0.280090000000    -0.391703   
O62      O      0.670890000000     0.978270000000     0.404520000000    -0.395129   
O63      O      0.610660000000     0.974400000000     0.340190000000    -0.39192    
O64      O      0.735260000000     0.976130000000     0.345990000000    -0.394366   
O65      O      0.972920000000     0.678870000000     0.740440000000    -0.393004   
O66      O      0.970430000000     0.681220000000     0.615360000000    -0.389744   
O67      O      0.969830000000     0.616770000000     0.676480000000    -0.389683   
O68      O      0.973580000000     0.741910000000     0.681240000000    -0.39152    
O69      O      0.042170000000     0.739500000000     0.677270000000    -0.395846   
O70      O      0.038370000000     0.615220000000     0.674530000000    -0.39907    
O71      O      0.038950000000     0.678760000000     0.614230000000    -0.397677   
O72      O      0.041490000000     0.674320000000     0.738760000000    -0.395014   
O73      O      0.971220000000     0.405000000000     0.674100000000    -0.390441   
O74      O      0.976360000000     0.280250000000     0.665520000000    -0.392321   
O75      O      0.971870000000     0.337850000000     0.732860000000    -0.391914   
O76      O      0.975820000000     0.346200000000     0.608570000000    -0.395802   
O77      O      0.044270000000     0.342580000000     0.610630000000    -0.392675   
O78      O      0.039520000000     0.349460000000     0.735370000000    -0.394386   
O79      O      0.044040000000     0.282890000000     0.676940000000    -0.393033   
O80      O      0.039660000000     0.407290000000     0.670300000000    -0.396744   
O81      O      0.040160000000     0.674190000000     0.405680000000    -0.39572    
O82      O      0.043640000000     0.679880000000     0.281100000000    -0.393668   
O83      O      0.040420000000     0.738620000000     0.346840000000    -0.395328   
O84      O      0.043590000000     0.613940000000     0.340890000000    -0.392885   
O85      O      0.975140000000     0.612440000000     0.344920000000    -0.393462   
O86      O      0.972620000000     0.737060000000     0.335870000000    -0.390348   
O87      O      0.975770000000     0.669450000000     0.279170000000    -0.393978   
O88      O      0.971760000000     0.678650000000     0.403740000000    -0.390433   
O89      O      0.973320000000     0.340120000000     0.276280000000    -0.393656   
O90      O      0.976910000000     0.343980000000     0.400620000000    -0.397958   
O91      O      0.976080000000     0.403760000000     0.336690000000    -0.396232   
O92      O      0.974220000000     0.279220000000     0.342350000000    -0.393383   
O93      O      0.042800000000     0.278000000000     0.337710000000    -0.395445   
O94      O      0.044620000000     0.402870000000     0.334470000000    -0.392113   
O95      O      0.045450000000     0.342240000000     0.399120000000    -0.391772   
O96      O      0.041930000000     0.336600000000     0.274040000000    -0.392871   
O97      O      0.941520000000     0.372260000000     0.005180000000    -0.393288   
O98      O      0.066180000000     0.372680000000     0.010410000000    -0.39366    
O99      O      0.007390000000     0.375320000000     0.944130000000    -0.390477   
O100     O      0.999880000000     0.369750000000     0.068590000000    -0.39323    
O101     O      0.009180000000     0.301710000000     0.065330000000    -0.389517   
O102     O      0.999390000000     0.307140000000     0.940690000000    -0.390875   
O103     O      0.066670000000     0.305170000000     0.997630000000    -0.390593   
O104     O      0.942110000000     0.303450000000     0.005240000000    -0.392874   
O105     O      0.948510000000     0.706480000000     0.017610000000    -0.390489   
O106     O      0.072580000000     0.708110000000     0.002560000000    -0.392359   
O107     O      0.002970000000     0.707660000000     0.948190000000    -0.392271   
O108     O      0.018190000000     0.707060000000     0.072020000000    -0.393293   
O109     O      0.004680000000     0.639720000000     0.071670000000    -0.393581   
O110     O      0.018370000000     0.640720000000     0.947530000000    -0.391141   
O111     O      0.073460000000     0.640870000000     0.016610000000    -0.392774   
O112     O      0.949430000000     0.639440000000     0.002710000000    -0.391761   
O113     O      0.068310000000     0.007820000000     0.307930000000    -0.393547   
O114     O      0.943580000000     0.014460000000     0.306860000000    -0.39256    
O115     O      0.010450000000     0.071650000000     0.308990000000    -0.397246   
O116     O      0.001490000000     0.947180000000     0.305850000000    -0.390422   
O117     O      0.009180000000     0.945290000000     0.374130000000    -0.395409   
O118     O      0.001010000000     0.069830000000     0.377080000000    -0.392594   
O119     O      0.942830000000     0.003200000000     0.374650000000    -0.394389   
O120     O      0.067340000000     0.009290000000     0.376720000000    -0.394843   
O121     O      0.950230000000     0.004520000000     0.642350000000    -0.392542   
O122     O      0.075000000000     0.010180000000     0.643320000000    -0.39396    
O123     O      0.016680000000     0.946790000000     0.646070000000    -0.395368   
O124     O      0.008900000000     0.071220000000     0.639470000000    -0.391609   
O125     O      0.016710000000     0.075140000000     0.707650000000    -0.395581   
O126     O      0.007000000000     0.950640000000     0.714030000000    -0.389898   
O127     O      0.073960000000     0.010680000000     0.712140000000    -0.394825   
O128     O      0.949550000000     0.018060000000     0.709730000000    -0.393548   
O129     O      0.639560000000     0.065870000000     0.002210000000    -0.39388    
O130     O      0.641390000000     0.941570000000     0.012150000000    -0.391789   
O131     O      0.638890000000     0.008800000000     0.069380000000    -0.39232    
O132     O      0.642200000000     0.998650000000     0.944960000000    -0.387773   
O133     O      0.709070000000     0.014100000000     0.947100000000    -0.389689   
O134     O      0.706260000000     0.995660000000     0.070740000000    -0.387637   
O135     O      0.708880000000     0.942950000000     0.999620000000    -0.386545   
O136     O      0.706340000000     0.066680000000     0.018120000000    -0.390942   
O137     O      0.307240000000     0.067340000000     0.019940000000    -0.391854   
O138     O      0.308730000000     0.943490000000     0.003400000000    -0.391206   
O139     O      0.307370000000     0.997160000000     0.073680000000    -0.388015   
O140     O      0.308650000000     0.013700000000     0.949770000000    -0.389902   
O141     O      0.375880000000     0.999750000000     0.950230000000    -0.38772    
O142     O      0.374390000000     0.012060000000     0.074440000000    -0.392507   
O143     O      0.375710000000     0.943820000000     0.018520000000    -0.391367   
O144     O      0.374510000000     0.068080000000     0.006220000000    -0.392969   


