data_structure

_audit_creation_method RASPA-1.0
_audit_creation_date 2023-5-23
_audit_author_name 'Poobodin Mano'

_cell_length_a    43.2439
_cell_length_b    43.2438
_cell_length_c    43.4717
_cell_angle_alpha 90
_cell_angle_beta  90
_cell_angle_gamma 90
_cell_volume      81293.4

_symmetry_cell_setting          triclinic
_symmetry_space_group_name_Hall 'P 1'
_symmetry_space_group_name_H-M  'P 1'
_symmetry_Int_Tables_number     1

_symmetry_equiv_pos_as_xyz 'x,y,z'

loop_
_atom_site_label
_atom_site_type_symbol
_atom_site_fract_x
_atom_site_fract_y
_atom_site_fract_z
_atom_site_charge
C1       C      0.447460000000     0.508940000000     0.006290000000     0.401593   
C2       C      0.070470000000     0.008950000000     0.006290000000     0.400749   
C3       C      0.508970000000     0.447440000000     0.006290000000     0.401667   
C4       C      0.008960000000     0.070450000000     0.006290000000     0.40075    
C5       C      0.070270000000     0.008960000000     0.256290000000     0.402876   
C6       C      0.447650000000     0.508960000000     0.256300000000     0.403596   
C7       C      0.008960000000     0.070280000000     0.256300000000     0.402651   
C8       C      0.508960000000     0.447650000000     0.256300000000     0.403729   
C9       C      0.508960000000     0.258950000000     0.444990000000     0.40303    
C10      C      0.508960000000     0.258940000000     0.067610000000     0.402951   
C11      C      0.508960000000     0.197510000000     0.506300000000     0.405595   
C12      C      0.508960000000     0.320380000000     0.006300000000     0.405087   
C13      C      0.508960000000     0.258960000000     0.194980000000     0.403274   
C14      C      0.508960000000     0.258960000000     0.317620000000     0.403291   
C15      C      0.508960000000     0.197490000000     0.256300000000     0.405231   
C16      C      0.508960000000     0.320430000000     0.256300000000     0.405374   
C17      C      0.258970000000     0.508950000000     0.067600000000     0.403346   
C18      C      0.258960000000     0.508950000000     0.444970000000     0.403467   
C19      C      0.320410000000     0.508950000000     0.006280000000     0.405271   
C20      C      0.197520000000     0.508950000000     0.506290000000     0.405463   
C21      C      0.258960000000     0.508960000000     0.317610000000     0.403522   
C22      C      0.258960000000     0.508960000000     0.194960000000     0.403474   
C23      C      0.320440000000     0.508960000000     0.256290000000     0.405479   
C24      C      0.197470000000     0.508960000000     0.256280000000     0.405272   
C25      C      0.259180000000     0.036220000000     0.397350000000     0.0292268  
C26      C      0.258740000000     0.481690000000     0.397350000000     0.0300645  
C27      C      0.258960000000     0.481690000000     0.365230000000     0.030032   
C28      C      0.258950000000     0.036220000000     0.365230000000     0.0293941  
C29      C      0.258970000000     0.036220000000     0.147340000000     0.0293185  
C30      C      0.258960000000     0.481690000000     0.147340000000     0.0300227  
C31      C      0.259190000000     0.481690000000     0.115220000000     0.0299492  
C32      C      0.258750000000     0.036220000000     0.115220000000     0.0292651  
C33      C      0.536090000000     0.261670000000     0.397370000000     0.0299407  
C34      C      0.481830000000     0.256240000000     0.397370000000     0.0299283  
C35      C      0.481830000000     0.256250000000     0.365240000000     0.0300354  
C36      C      0.536090000000     0.261660000000     0.365240000000     0.0300302  
C37      C      0.481830000000     0.261670000000     0.115230000000     0.0298798  
C38      C      0.036090000000     0.256240000000     0.115230000000     0.0291792  
C39      C      0.036090000000     0.256250000000     0.147360000000     0.0292397  
C40      C      0.481830000000     0.261660000000     0.147360000000     0.0300063  
C41      C      0.117740000000     0.489240000000     0.275090000000     0.0313197  
C42      C      0.117740000000     0.028690000000     0.237490000000     0.0306688  
C43      C      0.150000000000     0.029720000000     0.238620000000     0.0309103  
C44      C      0.150000000000     0.488200000000     0.273950000000     0.0317984  
C45      C      0.367920000000     0.029720000000     0.273960000000     0.0309642  
C46      C      0.367920000000     0.488200000000     0.238620000000     0.0318033  
C47      C      0.400180000000     0.489230000000     0.237490000000     0.0312704  
C48      C      0.400180000000     0.028690000000     0.275100000000     0.0307012  
C49      C      0.489350000000     0.400180000000     0.275220000000     0.0313848  
C50      C      0.028570000000     0.400180000000     0.237370000000     0.0307204  
C51      C      0.029600000000     0.367910000000     0.238500000000     0.0310132  
C52      C      0.488320000000     0.367920000000     0.274100000000     0.0318053  
C53      C      0.028570000000     0.117750000000     0.275220000000     0.0307152  
C54      C      0.489350000000     0.117750000000     0.237370000000     0.0312747  
C55      C      0.488310000000     0.150010000000     0.238500000000     0.0317457  
C56      C      0.029600000000     0.150010000000     0.274100000000     0.0309507  
C57      C      0.117870000000     0.491070000000     0.026850000000     0.0317047  
C58      C      0.117860000000     0.026830000000     0.485730000000     0.0317758  
C59      C      0.150120000000     0.028060000000     0.486850000000     0.0311336  
C60      C      0.150120000000     0.489850000000     0.025730000000     0.031707   
C61      C      0.400070000000     0.026830000000     0.026850000000     0.0311673  
C62      C      0.400070000000     0.491060000000     0.485730000000     0.0324179  
C63      C      0.367810000000     0.489840000000     0.486840000000     0.032001   
C64      C      0.367810000000     0.028050000000     0.025730000000     0.0308389  
C65      C      0.026720000000     0.400040000000     0.026970000000     0.0311151  
C66      C      0.491220000000     0.400040000000     0.485620000000     0.0323549  
C67      C      0.489990000000     0.367780000000     0.486730000000     0.0320708  
C68      C      0.027940000000     0.367780000000     0.025860000000     0.030893   
C69      C      0.026720000000     0.117850000000     0.485620000000     0.0316534  
C70      C      0.491210000000     0.117850000000     0.026960000000     0.0317416  
C71      C      0.489980000000     0.150110000000     0.025860000000     0.0316192  
C72      C      0.027940000000     0.150110000000     0.486730000000     0.0311543  
C73      C      0.447460000000     0.508940000000     0.506290000000     0.405379   
C74      C      0.070470000000     0.008950000000     0.506290000000     0.404759   
C75      C      0.508970000000     0.447440000000     0.506290000000     0.405451   
C76      C      0.008960000000     0.070450000000     0.506290000000     0.404521   
C77      C      0.070270000000     0.008960000000     0.756290000000     0.402861   
C78      C      0.447650000000     0.508960000000     0.756300000000     0.403649   
C79      C      0.008960000000     0.070280000000     0.756300000000     0.402868   
C80      C      0.508960000000     0.447650000000     0.756300000000     0.403709   
C81      C      0.508960000000     0.258950000000     0.944990000000     0.402711   
C82      C      0.508960000000     0.258940000000     0.567610000000     0.403027   
C83      C      0.508960000000     0.197510000000     0.006300000000     0.405197   
C84      C      0.508960000000     0.320380000000     0.506300000000     0.405485   
C85      C      0.508960000000     0.258960000000     0.694980000000     0.403269   
C86      C      0.508960000000     0.258960000000     0.817620000000     0.403465   
C87      C      0.508960000000     0.197490000000     0.756300000000     0.405194   
C88      C      0.508960000000     0.320430000000     0.756300000000     0.405406   
C89      C      0.258970000000     0.508950000000     0.567600000000     0.403515   
C90      C      0.258960000000     0.508950000000     0.944970000000     0.403134   
C91      C      0.320410000000     0.508950000000     0.506280000000     0.40568    
C92      C      0.197520000000     0.508950000000     0.006290000000     0.405053   
C93      C      0.258960000000     0.508960000000     0.817610000000     0.403551   
C94      C      0.258960000000     0.508960000000     0.694960000000     0.403475   
C95      C      0.320440000000     0.508960000000     0.756290000000     0.405485   
C96      C      0.197470000000     0.508960000000     0.756280000000     0.405308   
C97      C      0.259180000000     0.036220000000     0.897350000000     0.029367   
C98      C      0.258740000000     0.481690000000     0.897350000000     0.0302027  
C99      C      0.258960000000     0.481690000000     0.865230000000     0.0301415  
C100     C      0.258950000000     0.036220000000     0.865230000000     0.0295045  
C101     C      0.258970000000     0.036220000000     0.647340000000     0.029345   
C102     C      0.258960000000     0.481690000000     0.647340000000     0.030052   
C103     C      0.259190000000     0.481690000000     0.615220000000     0.029988   
C104     C      0.258750000000     0.036220000000     0.615220000000     0.0293024  
C105     C      0.536090000000     0.261670000000     0.897370000000     0.0300747  
C106     C      0.481830000000     0.256240000000     0.897370000000     0.0300629  
C107     C      0.481830000000     0.256250000000     0.865240000000     0.0301534  
C108     C      0.536090000000     0.261660000000     0.865240000000     0.0301487  
C109     C      0.481830000000     0.261670000000     0.615230000000     0.0299156  
C110     C      0.036090000000     0.256240000000     0.615230000000     0.0291972  
C111     C      0.036090000000     0.256250000000     0.647360000000     0.0292736  
C112     C      0.481830000000     0.261660000000     0.647360000000     0.0300354  
C113     C      0.117740000000     0.489240000000     0.775090000000     0.0313462  
C114     C      0.117740000000     0.028690000000     0.737490000000     0.0306832  
C115     C      0.150000000000     0.029720000000     0.738620000000     0.0309401  
C116     C      0.150000000000     0.488200000000     0.773950000000     0.0318264  
C117     C      0.367920000000     0.029720000000     0.773960000000     0.031012   
C118     C      0.367920000000     0.488200000000     0.738620000000     0.0318004  
C119     C      0.400180000000     0.489230000000     0.737490000000     0.0313414  
C120     C      0.400180000000     0.028690000000     0.775100000000     0.0306813  
C121     C      0.489350000000     0.400180000000     0.775220000000     0.0314093  
C122     C      0.028570000000     0.400180000000     0.737370000000     0.0307386  
C123     C      0.029600000000     0.367910000000     0.738500000000     0.0310334  
C124     C      0.488320000000     0.367910000000     0.774100000000     0.0318651  
C125     C      0.028570000000     0.117750000000     0.775220000000     0.0307566  
C126     C      0.489350000000     0.117750000000     0.737370000000     0.0313014  
C127     C      0.488310000000     0.150010000000     0.738500000000     0.0317611  
C128     C      0.029600000000     0.150010000000     0.774100000000     0.0309729  
C129     C      0.117870000000     0.491070000000     0.526850000000     0.0322929  
C130     C      0.117860000000     0.026830000000     0.985730000000     0.0339866  
C131     C      0.150120000000     0.028060000000     0.986850000000     0.0337585  
C132     C      0.150120000000     0.489850000000     0.525730000000     0.032087   
C133     C      0.400070000000     0.026830000000     0.526850000000     0.031725   
C134     C      0.400070000000     0.491060000000     0.985730000000     0.0345727  
C135     C      0.367810000000     0.489850000000     0.986840000000     0.0347641  
C136     C      0.367810000000     0.028050000000     0.525730000000     0.0312723  
C137     C      0.026720000000     0.400040000000     0.526970000000     0.0316894  
C138     C      0.491220000000     0.400040000000     0.985620000000     0.0345895  
C139     C      0.489990000000     0.367780000000     0.986730000000     0.0346934  
C140     C      0.027940000000     0.367780000000     0.525860000000     0.0312778  
C141     C      0.026720000000     0.117850000000     0.985620000000     0.0338671  
C142     C      0.491210000000     0.117850000000     0.526960000000     0.032318   
C143     C      0.489980000000     0.150110000000     0.525860000000     0.0320055  
C144     C      0.027940000000     0.150110000000     0.986730000000     0.0337787  
C145     C      0.447460000000     0.008940000000     0.006290000000     0.400986   
C146     C      0.070470000000     0.508950000000     0.006290000000     0.401345   
C147     C      0.508970000000     0.947440000000     0.006290000000     0.401176   
C148     C      0.008960000000     0.570450000000     0.006290000000     0.400986   
C149     C      0.070270000000     0.508970000000     0.256290000000     0.403484   
C150     C      0.447650000000     0.008960000000     0.256300000000     0.402991   
C151     C      0.008960000000     0.570280000000     0.256300000000     0.402949   
C152     C      0.508960000000     0.947650000000     0.256300000000     0.403354   
C153     C      0.508960000000     0.758950000000     0.444990000000     0.403039   
C154     C      0.508960000000     0.758950000000     0.067610000000     0.40296    
C155     C      0.508960000000     0.697510000000     0.506300000000     0.405593   
C156     C      0.508960000000     0.820380000000     0.006300000000     0.405123   
C157     C      0.508960000000     0.758960000000     0.194980000000     0.403256   
C158     C      0.508960000000     0.758960000000     0.317620000000     0.403273   
C159     C      0.508960000000     0.697490000000     0.256300000000     0.40523    
C160     C      0.508960000000     0.820430000000     0.256300000000     0.405411   
C161     C      0.258970000000     0.008950000000     0.067600000000     0.397602   
C162     C      0.258960000000     0.008950000000     0.444970000000     0.397713   
C163     C      0.320410000000     0.008950000000     0.006280000000     0.39972    
C164     C      0.197520000000     0.008950000000     0.506290000000     0.399901   
C165     C      0.258960000000     0.008960000000     0.317610000000     0.398012   
C166     C      0.258960000000     0.008960000000     0.194960000000     0.397945   
C167     C      0.320440000000     0.008960000000     0.256290000000     0.399934   
C168     C      0.197470000000     0.008960000000     0.256280000000     0.399732   
C169     C      0.259180000000     0.536220000000     0.397350000000     0.0299697  
C170     C      0.258740000000     0.981690000000     0.397350000000     0.0333919  
C171     C      0.258960000000     0.981690000000     0.365230000000     0.0333765  
C172     C      0.258950000000     0.536220000000     0.365230000000     0.0301205  
C173     C      0.258970000000     0.536220000000     0.147340000000     0.0300455  
C174     C      0.258960000000     0.981690000000     0.147340000000     0.033365   
C175     C      0.259190000000     0.981690000000     0.115220000000     0.0332721  
C176     C      0.258750000000     0.536220000000     0.115220000000     0.0300065  
C177     C      0.536090000000     0.761660000000     0.397370000000     0.0299788  
C178     C      0.481830000000     0.756240000000     0.397370000000     0.0299536  
C179     C      0.481830000000     0.756250000000     0.365240000000     0.0300577  
C180     C      0.536090000000     0.761660000000     0.365240000000     0.0300549  
C181     C      0.481830000000     0.761660000000     0.115230000000     0.0299173  
C182     C      0.036090000000     0.756240000000     0.115230000000     0.0292064  
C183     C      0.036090000000     0.756250000000     0.147360000000     0.0292647  
C184     C      0.481830000000     0.761660000000     0.147360000000     0.0300296  
C185     C      0.117740000000     0.989230000000     0.275090000000     0.0350605  
C186     C      0.117740000000     0.528690000000     0.237490000000     0.0312473  
C187     C      0.150000000000     0.529720000000     0.238620000000     0.0317637  
C188     C      0.150000000000     0.988200000000     0.273950000000     0.035112   
C189     C      0.367920000000     0.529720000000     0.273960000000     0.0318185  
C190     C      0.367920000000     0.988200000000     0.238620000000     0.0350561  
C191     C      0.400180000000     0.989230000000     0.237490000000     0.0351213  
C192     C      0.400180000000     0.528690000000     0.275100000000     0.0313021  
C193     C      0.489350000000     0.900180000000     0.275220000000     0.031556   
C194     C      0.028570000000     0.900180000000     0.237370000000     0.0308945  
C195     C      0.029600000000     0.867910000000     0.238500000000     0.03116    
C196     C      0.488320000000     0.867920000000     0.274100000000     0.0319525  
C197     C      0.028570000000     0.617750000000     0.275220000000     0.0307588  
C198     C      0.489350000000     0.617750000000     0.237370000000     0.0313118  
C199     C      0.488310000000     0.650010000000     0.238500000000     0.0317638  
C200     C      0.029600000000     0.650010000000     0.274100000000     0.0309679  
C201     C      0.117870000000     0.991070000000     0.026850000000     0.0356144  
C202     C      0.117860000000     0.526830000000     0.485730000000     0.0323602  
C203     C      0.150120000000     0.528060000000     0.486850000000     0.0320079  
C204     C      0.150120000000     0.989850000000     0.025740000000     0.0348796  
C205     C      0.400070000000     0.526830000000     0.026850000000     0.0317524  
C206     C      0.400070000000     0.991070000000     0.485730000000     0.0363218  
C207     C      0.367810000000     0.989850000000     0.486840000000     0.035298   
C208     C      0.367810000000     0.528050000000     0.025730000000     0.0317101  
C209     C      0.026720000000     0.900040000000     0.026970000000     0.0313133  
C210     C      0.491220000000     0.900040000000     0.485620000000     0.0325505  
C211     C      0.489990000000     0.867780000000     0.486730000000     0.0322174  
C212     C      0.027940000000     0.867780000000     0.025860000000     0.0310441  
C213     C      0.026720000000     0.617850000000     0.485620000000     0.031703   
C214     C      0.491210000000     0.617850000000     0.026960000000     0.0317903  
C215     C      0.489980000000     0.650110000000     0.025860000000     0.0316351  
C216     C      0.027940000000     0.650110000000     0.486730000000     0.0311714  
C217     C      0.447460000000     0.008940000000     0.506290000000     0.404765   
C218     C      0.070470000000     0.508950000000     0.506290000000     0.405368   
C219     C      0.508970000000     0.947440000000     0.506290000000     0.404946   
C220     C      0.008960000000     0.570450000000     0.506290000000     0.404765   
C221     C      0.070270000000     0.508970000000     0.756290000000     0.403468   
C222     C      0.447650000000     0.008960000000     0.756300000000     0.403046   
C223     C      0.008960000000     0.570280000000     0.756300000000     0.403166   
C224     C      0.508960000000     0.947650000000     0.756300000000     0.403335   
C225     C      0.508960000000     0.758950000000     0.944990000000     0.402721   
C226     C      0.508960000000     0.758950000000     0.567610000000     0.403035   
C227     C      0.508960000000     0.697510000000     0.006300000000     0.405194   
C228     C      0.508960000000     0.820380000000     0.506300000000     0.405522   
C229     C      0.508960000000     0.758960000000     0.694980000000     0.403251   
C230     C      0.508960000000     0.758960000000     0.817620000000     0.403447   
C231     C      0.508960000000     0.697490000000     0.756300000000     0.405193   
C232     C      0.508960000000     0.820430000000     0.756300000000     0.405443   
C233     C      0.258970000000     0.008950000000     0.567600000000     0.397761   
C234     C      0.258960000000     0.008950000000     0.944970000000     0.397399   
C235     C      0.320410000000     0.008950000000     0.506280000000     0.400116   
C236     C      0.197520000000     0.008950000000     0.006290000000     0.399498   
C237     C      0.258960000000     0.008960000000     0.817610000000     0.39805    
C238     C      0.258960000000     0.008960000000     0.694960000000     0.39795    
C239     C      0.320440000000     0.008960000000     0.756290000000     0.399945   
C240     C      0.197470000000     0.008960000000     0.756280000000     0.400006   
C241     C      0.259180000000     0.536220000000     0.897350000000     0.0301081  
C242     C      0.258740000000     0.981690000000     0.897350000000     0.0335206  
C243     C      0.258960000000     0.981690000000     0.865230000000     0.03348    
C244     C      0.258950000000     0.536220000000     0.865230000000     0.0302303  
C245     C      0.258970000000     0.536220000000     0.647340000000     0.0300725  
C246     C      0.258960000000     0.981690000000     0.647340000000     0.0333936  
C247     C      0.259190000000     0.981690000000     0.615220000000     0.0333137  
C248     C      0.258750000000     0.536220000000     0.615220000000     0.0300448  
C249     C      0.536090000000     0.761660000000     0.897370000000     0.0301126  
C250     C      0.481830000000     0.756240000000     0.897370000000     0.0300879  
C251     C      0.481830000000     0.756250000000     0.865240000000     0.0301755  
C252     C      0.536090000000     0.761660000000     0.865240000000     0.0301731  
C253     C      0.481830000000     0.761660000000     0.615230000000     0.0299531  
C254     C      0.036090000000     0.756230000000     0.615230000000     0.029215   
C255     C      0.036090000000     0.756250000000     0.647360000000     0.029303   
C256     C      0.481830000000     0.761660000000     0.647360000000     0.0300588  
C257     C      0.117740000000     0.989230000000     0.775090000000     0.0351196  
C258     C      0.117740000000     0.528690000000     0.737490000000     0.0312611  
C259     C      0.150000000000     0.529720000000     0.738620000000     0.0317863  
C260     C      0.150000000000     0.988200000000     0.773960000000     0.0350699  
C261     C      0.367920000000     0.529720000000     0.773960000000     0.0318736  
C262     C      0.367920000000     0.988200000000     0.738620000000     0.0350489  
C263     C      0.400180000000     0.989230000000     0.737490000000     0.0351912  
C264     C      0.400180000000     0.528690000000     0.775100000000     0.0312651  
C265     C      0.489350000000     0.900180000000     0.775220000000     0.0315845  
C266     C      0.028570000000     0.900180000000     0.737370000000     0.0309119  
C267     C      0.029600000000     0.867910000000     0.738500000000     0.0311815  
C268     C      0.488320000000     0.867920000000     0.774100000000     0.0319811  
C269     C      0.028570000000     0.617750000000     0.775220000000     0.0308003  
C270     C      0.489350000000     0.617750000000     0.737370000000     0.0313386  
C271     C      0.488310000000     0.650010000000     0.738500000000     0.0317794  
C272     C      0.029600000000     0.650010000000     0.774100000000     0.0309903  
C273     C      0.117870000000     0.991070000000     0.526850000000     0.0361621  
C274     C      0.117860000000     0.526830000000     0.985730000000     0.0345564  
C275     C      0.150120000000     0.528060000000     0.986850000000     0.034661   
C276     C      0.150120000000     0.989850000000     0.525730000000     0.035349   
C277     C      0.400070000000     0.526830000000     0.526850000000     0.0323148  
C278     C      0.400070000000     0.991060000000     0.985730000000     0.03842    
C279     C      0.367810000000     0.989850000000     0.986840000000     0.0380072  
C280     C      0.367810000000     0.528050000000     0.525730000000     0.0321486  
C281     C      0.026720000000     0.900040000000     0.526970000000     0.0318863  
C282     C      0.491220000000     0.900040000000     0.985620000000     0.0347767  
C283     C      0.489990000000     0.867780000000     0.986730000000     0.0348337  
C284     C      0.027940000000     0.867780000000     0.525860000000     0.0314272  
C285     C      0.026720000000     0.617850000000     0.985620000000     0.0339177  
C286     C      0.491210000000     0.617850000000     0.526960000000     0.0323683  
C287     C      0.489980000000     0.650110000000     0.525860000000     0.0320221  
C288     C      0.027940000000     0.650110000000     0.986730000000     0.0337942  
C289     C      0.947460000000     0.508940000000     0.006290000000     0.401104   
C290     C      0.570470000000     0.008950000000     0.006290000000     0.401231   
C291     C      0.008970000000     0.447440000000     0.006290000000     0.401059   
C292     C      0.508960000000     0.070450000000     0.006290000000     0.401361   
C293     C      0.570270000000     0.008960000000     0.256290000000     0.403099   
C294     C      0.947650000000     0.508960000000     0.256300000000     0.403093   
C295     C      0.508960000000     0.070280000000     0.256300000000     0.403259   
C296     C      0.008960000000     0.447650000000     0.256300000000     0.403124   
C297     C      0.008960000000     0.258950000000     0.444990000000     0.397534   
C298     C      0.008960000000     0.258950000000     0.067610000000     0.397447   
C299     C      0.008960000000     0.197510000000     0.506300000000     0.400055   
C300     C      0.008960000000     0.320380000000     0.006300000000     0.39954    
C301     C      0.008960000000     0.258960000000     0.194980000000     0.397769   
C302     C      0.008960000000     0.258960000000     0.317620000000     0.397784   
C303     C      0.008960000000     0.197490000000     0.256300000000     0.399895   
C304     C      0.008960000000     0.320430000000     0.256300000000     0.399864   
C305     C      0.758970000000     0.508950000000     0.067600000000     0.403331   
C306     C      0.758970000000     0.508950000000     0.444970000000     0.403475   
C307     C      0.820410000000     0.508950000000     0.006280000000     0.40531    
C308     C      0.697520000000     0.508950000000     0.506290000000     0.40546    
C309     C      0.758960000000     0.508960000000     0.317610000000     0.403535   
C310     C      0.758960000000     0.508960000000     0.194960000000     0.403488   
C311     C      0.820440000000     0.508960000000     0.256290000000     0.405521   
C312     C      0.697470000000     0.508960000000     0.256280000000     0.405193   
C313     C      0.759180000000     0.036220000000     0.397350000000     0.0292577  
C314     C      0.758740000000     0.481690000000     0.397350000000     0.0300898  
C315     C      0.758960000000     0.481690000000     0.365230000000     0.0300592  
C316     C      0.758950000000     0.036220000000     0.365230000000     0.0294221  
C317     C      0.758970000000     0.036220000000     0.147340000000     0.0293498  
C318     C      0.758960000000     0.481690000000     0.147340000000     0.0300502  
C319     C      0.759190000000     0.481690000000     0.115220000000     0.0299763  
C320     C      0.758750000000     0.036220000000     0.115220000000     0.0292915  
C321     C      0.036090000000     0.261670000000     0.397370000000     0.0292017  
C322     C      0.981830000000     0.256240000000     0.397370000000     0.0332725  
C323     C      0.981830000000     0.256250000000     0.365240000000     0.0333781  
C324     C      0.036090000000     0.261660000000     0.365240000000     0.0292918  
C325     C      0.981830000000     0.261670000000     0.115230000000     0.0332317  
C326     C      0.536090000000     0.256240000000     0.115230000000     0.0299146  
C327     C      0.536090000000     0.256250000000     0.147360000000     0.0299789  
C328     C      0.981830000000     0.261660000000     0.147360000000     0.0333199  
C329     C      0.617740000000     0.489240000000     0.275090000000     0.0313551  
C330     C      0.617740000000     0.028690000000     0.237490000000     0.0306992  
C331     C      0.650000000000     0.029720000000     0.238620000000     0.0309299  
C332     C      0.650000000000     0.488200000000     0.273950000000     0.0318129  
C333     C      0.867920000000     0.029720000000     0.273960000000     0.0311157  
C334     C      0.867920000000     0.488200000000     0.238620000000     0.0319506  
C335     C      0.900180000000     0.489230000000     0.237490000000     0.0314419  
C336     C      0.900180000000     0.028690000000     0.275100000000     0.0308743  
C337     C      0.989350000000     0.400180000000     0.275220000000     0.0352228  
C338     C      0.528570000000     0.400180000000     0.237370000000     0.0313018  
C339     C      0.529600000000     0.367910000000     0.238500000000     0.031861   
C340     C      0.988320000000     0.367910000000     0.274100000000     0.0350866  
C341     C      0.528570000000     0.117750000000     0.275220000000     0.0313014  
C342     C      0.989350000000     0.117750000000     0.237370000000     0.0350695  
C343     C      0.988320000000     0.150010000000     0.238500000000     0.0350843  
C344     C      0.529600000000     0.150010000000     0.274100000000     0.0317922  
C345     C      0.617870000000     0.491070000000     0.026850000000     0.0317677  
C346     C      0.617860000000     0.026830000000     0.485730000000     0.0318309  
C347     C      0.650120000000     0.028060000000     0.486850000000     0.0311524  
C348     C      0.650120000000     0.489850000000     0.025730000000     0.0317177  
C349     C      0.900070000000     0.026830000000     0.026850000000     0.0313709  
C350     C      0.900070000000     0.491060000000     0.485730000000     0.0326183  
C351     C      0.867810000000     0.489840000000     0.486840000000     0.0321485  
C352     C      0.867810000000     0.028050000000     0.025730000000     0.030992   
C353     C      0.526720000000     0.400040000000     0.026970000000     0.0316968  
C354     C      0.991220000000     0.400040000000     0.485620000000     0.0362379  
C355     C      0.989990000000     0.367780000000     0.486730000000     0.0352689  
C356     C      0.527940000000     0.367780000000     0.025860000000     0.0317136  
C357     C      0.526720000000     0.117850000000     0.485620000000     0.032235   
C358     C      0.991210000000     0.117850000000     0.026960000000     0.0355975  
C359     C      0.989980000000     0.150110000000     0.025860000000     0.0348726  
C360     C      0.527940000000     0.150110000000     0.486730000000     0.0320245  
C361     C      0.947460000000     0.508940000000     0.506290000000     0.404878   
C362     C      0.570470000000     0.008950000000     0.506290000000     0.405008   
C363     C      0.008970000000     0.447440000000     0.506290000000     0.404836   
C364     C      0.508960000000     0.070450000000     0.506290000000     0.405138   
C365     C      0.570270000000     0.008960000000     0.756290000000     0.40308    
C366     C      0.947650000000     0.508960000000     0.756300000000     0.403074   
C367     C      0.508960000000     0.070280000000     0.756300000000     0.403471   
C368     C      0.008960000000     0.447650000000     0.756300000000     0.403108   
C369     C      0.008960000000     0.258950000000     0.944990000000     0.397216   
C370     C      0.008960000000     0.258940000000     0.567610000000     0.397301   
C371     C      0.008960000000     0.197510000000     0.006300000000     0.399656   
C372     C      0.008960000000     0.320380000000     0.506300000000     0.399944   
C373     C      0.008960000000     0.258960000000     0.694980000000     0.397763   
C374     C      0.008960000000     0.258960000000     0.817620000000     0.397964   
C375     C      0.008960000000     0.197490000000     0.756300000000     0.399894   
C376     C      0.008960000000     0.320430000000     0.756300000000     0.399831   
C377     C      0.758970000000     0.508950000000     0.567600000000     0.4035     
C378     C      0.758970000000     0.508950000000     0.944970000000     0.403142   
C379     C      0.820410000000     0.508950000000     0.506280000000     0.405719   
C380     C      0.697520000000     0.508950000000     0.006290000000     0.405049   
C381     C      0.758960000000     0.508960000000     0.817610000000     0.403564   
C382     C      0.758960000000     0.508960000000     0.694960000000     0.403489   
C383     C      0.820440000000     0.508960000000     0.756290000000     0.405527   
C384     C      0.697470000000     0.508960000000     0.756280000000     0.40523    
C385     C      0.759180000000     0.036220000000     0.897350000000     0.0293972  
C386     C      0.758740000000     0.481690000000     0.897350000000     0.0302277  
C387     C      0.758960000000     0.481690000000     0.865230000000     0.0301683  
C388     C      0.758950000000     0.036220000000     0.865230000000     0.0295336  
C389     C      0.758970000000     0.036220000000     0.647340000000     0.0293757  
C390     C      0.758960000000     0.481690000000     0.647340000000     0.0300796  
C391     C      0.759190000000     0.481690000000     0.615220000000     0.0300152  
C392     C      0.758750000000     0.036220000000     0.615220000000     0.0293288  
C393     C      0.036090000000     0.261670000000     0.897370000000     0.029337   
C394     C      0.981830000000     0.256240000000     0.897370000000     0.0333967  
C395     C      0.981830000000     0.256250000000     0.865240000000     0.0334918  
C396     C      0.036090000000     0.261660000000     0.865240000000     0.0294128  
C397     C      0.981830000000     0.261670000000     0.615230000000     0.0332602  
C398     C      0.536090000000     0.256240000000     0.615230000000     0.0299435  
C399     C      0.536090000000     0.256250000000     0.647360000000     0.0300097  
C400     C      0.981830000000     0.261660000000     0.647360000000     0.0333524  
C401     C      0.617740000000     0.489240000000     0.775090000000     0.0313811  
C402     C      0.617740000000     0.028690000000     0.737490000000     0.0307174  
C403     C      0.650000000000     0.029720000000     0.738620000000     0.030949   
C404     C      0.650000000000     0.488200000000     0.773950000000     0.031841   
C405     C      0.867920000000     0.029720000000     0.773960000000     0.0311655  
C406     C      0.867920000000     0.488200000000     0.738620000000     0.0319481  
C407     C      0.900180000000     0.489230000000     0.737490000000     0.0315106  
C408     C      0.900180000000     0.028690000000     0.775100000000     0.0308458  
C409     C      0.989350000000     0.400180000000     0.775220000000     0.0352499  
C410     C      0.528570000000     0.400180000000     0.737370000000     0.0313163  
C411     C      0.529600000000     0.367910000000     0.738500000000     0.0318887  
C412     C      0.988320000000     0.367910000000     0.774100000000     0.0351073  
C413     C      0.528570000000     0.117750000000     0.775220000000     0.0313429  
C414     C      0.989350000000     0.117750000000     0.737370000000     0.0350927  
C415     C      0.988320000000     0.150010000000     0.738500000000     0.0350982  
C416     C      0.529600000000     0.150010000000     0.774100000000     0.0318107  
C417     C      0.617870000000     0.491070000000     0.526850000000     0.0323469  
C418     C      0.617860000000     0.026830000000     0.985730000000     0.0340539  
C419     C      0.650120000000     0.028060000000     0.986850000000     0.0337702  
C420     C      0.650120000000     0.489850000000     0.525730000000     0.0321034  
C421     C      0.900070000000     0.026830000000     0.526850000000     0.0319281  
C422     C      0.900070000000     0.491060000000     0.985730000000     0.0347644  
C423     C      0.867810000000     0.489850000000     0.986840000000     0.0349053  
C424     C      0.867810000000     0.028050000000     0.525730000000     0.0314246  
C425     C      0.526720000000     0.400040000000     0.526970000000     0.0322739  
C426     C      0.991220000000     0.400040000000     0.985620000000     0.0384539  
C427     C      0.989990000000     0.367780000000     0.986730000000     0.0378707  
C428     C      0.527940000000     0.367780000000     0.525860000000     0.032101   
C429     C      0.526720000000     0.117850000000     0.985620000000     0.0344679  
C430     C      0.991210000000     0.117850000000     0.526960000000     0.0361796  
C431     C      0.989980000000     0.150110000000     0.525860000000     0.0352619  
C432     C      0.527940000000     0.150110000000     0.986730000000     0.0346416  
C433     C      0.947460000000     0.008940000000     0.006290000000     0.400497   
C434     C      0.570470000000     0.508950000000     0.006290000000     0.401828   
C435     C      0.008970000000     0.947440000000     0.006290000000     0.400568   
C436     C      0.508960000000     0.570450000000     0.006290000000     0.401597   
C437     C      0.570270000000     0.508970000000     0.256290000000     0.403706   
C438     C      0.947650000000     0.008960000000     0.256300000000     0.402488   
C439     C      0.508960000000     0.570280000000     0.256300000000     0.403556   
C440     C      0.008960000000     0.947650000000     0.256300000000     0.40275    
C441     C      0.008960000000     0.758950000000     0.444990000000     0.397558   
C442     C      0.008960000000     0.758950000000     0.067610000000     0.397472   
C443     C      0.008960000000     0.697510000000     0.506300000000     0.400065   
C444     C      0.008960000000     0.820380000000     0.006300000000     0.399599   
C445     C      0.008960000000     0.758960000000     0.194980000000     0.397769   
C446     C      0.008960000000     0.758960000000     0.317620000000     0.397781   
C447     C      0.008960000000     0.697490000000     0.256300000000     0.399905   
C448     C      0.008960000000     0.820430000000     0.256300000000     0.399886   
C449     C      0.758970000000     0.008950000000     0.067600000000     0.397603   
C450     C      0.758970000000     0.008950000000     0.444970000000     0.397737   
C451     C      0.820410000000     0.008950000000     0.006280000000     0.399779   
C452     C      0.697520000000     0.008950000000     0.506290000000     0.399911   
C453     C      0.758960000000     0.008960000000     0.317610000000     0.398039   
C454     C      0.758960000000     0.008960000000     0.194960000000     0.397999   
C455     C      0.820440000000     0.008960000000     0.256290000000     0.399997   
C456     C      0.697470000000     0.008960000000     0.256290000000     0.399665   
C457     C      0.759180000000     0.536220000000     0.397350000000     0.0299983  
C458     C      0.758740000000     0.981690000000     0.397350000000     0.0334064  
C459     C      0.758960000000     0.981690000000     0.365230000000     0.0333919  
C460     C      0.758950000000     0.536220000000     0.365230000000     0.0301481  
C461     C      0.758970000000     0.536220000000     0.147340000000     0.0300734  
C462     C      0.758960000000     0.981690000000     0.147340000000     0.0333835  
C463     C      0.759190000000     0.981690000000     0.115220000000     0.0332877  
C464     C      0.758750000000     0.536220000000     0.115220000000     0.0300312  
C465     C      0.036090000000     0.761660000000     0.397370000000     0.0292432  
C466     C      0.981830000000     0.756240000000     0.397370000000     0.0332869  
C467     C      0.981830000000     0.756250000000     0.365240000000     0.0333889  
C468     C      0.036090000000     0.761660000000     0.365240000000     0.029315   
C469     C      0.981830000000     0.761660000000     0.115230000000     0.0332587  
C470     C      0.536090000000     0.756230000000     0.115230000000     0.0299308  
C471     C      0.536090000000     0.756250000000     0.147360000000     0.0300061  
C472     C      0.981830000000     0.761660000000     0.147360000000     0.0333339  
C473     C      0.617740000000     0.989230000000     0.275090000000     0.0350895  
C474     C      0.617740000000     0.528690000000     0.237490000000     0.0312813  
C475     C      0.650000000000     0.529720000000     0.238620000000     0.0317719  
C476     C      0.650000000000     0.988200000000     0.273950000000     0.0351074  
C477     C      0.867920000000     0.529720000000     0.273960000000     0.0319659  
C478     C      0.867920000000     0.988200000000     0.238620000000     0.0351898  
C479     C      0.900180000000     0.989230000000     0.237490000000     0.0352694  
C480     C      0.900180000000     0.528690000000     0.275100000000     0.0314731  
C481     C      0.989350000000     0.900180000000     0.275220000000     0.0353743  
C482     C      0.528570000000     0.900180000000     0.237370000000     0.0314723  
C483     C      0.529600000000     0.867910000000     0.238500000000     0.0320082  
C484     C      0.988320000000     0.867920000000     0.274100000000     0.035183   
C485     C      0.528570000000     0.617750000000     0.275220000000     0.0313443  
C486     C      0.989350000000     0.617750000000     0.237370000000     0.0351     
C487     C      0.988320000000     0.650010000000     0.238500000000     0.0350943  
C488     C      0.529600000000     0.650010000000     0.274100000000     0.0318083  
C489     C      0.617870000000     0.991070000000     0.026850000000     0.0356708  
C490     C      0.617860000000     0.526830000000     0.485730000000     0.0324177  
C491     C      0.650120000000     0.528060000000     0.486850000000     0.032025   
C492     C      0.650120000000     0.989850000000     0.025740000000     0.0348822  
C493     C      0.900070000000     0.526830000000     0.026850000000     0.0319538  
C494     C      0.900070000000     0.991070000000     0.485730000000     0.0364988  
C495     C      0.867810000000     0.989850000000     0.486840000000     0.0354282  
C496     C      0.867810000000     0.528050000000     0.025730000000     0.0318593  
C497     C      0.526720000000     0.900040000000     0.026970000000     0.0318926  
C498     C      0.991220000000     0.900040000000     0.485620000000     0.0364095  
C499     C      0.989990000000     0.867780000000     0.486730000000     0.0354012  
C500     C      0.527940000000     0.867780000000     0.025860000000     0.03186    
C501     C      0.526720000000     0.617850000000     0.485620000000     0.0322851  
C502     C      0.991210000000     0.617850000000     0.026960000000     0.0356395  
C503     C      0.989980000000     0.650110000000     0.025860000000     0.0348794  
C504     C      0.527940000000     0.650110000000     0.486730000000     0.0320404  
C505     C      0.947460000000     0.008940000000     0.506290000000     0.404264   
C506     C      0.570470000000     0.508950000000     0.506290000000     0.405625   
C507     C      0.008970000000     0.947440000000     0.506290000000     0.404331   
C508     C      0.508960000000     0.570450000000     0.506290000000     0.405383   
C509     C      0.570270000000     0.508970000000     0.756290000000     0.403685   
C510     C      0.947650000000     0.008960000000     0.756300000000     0.402471   
C511     C      0.508960000000     0.570280000000     0.756300000000     0.403768   
C512     C      0.008960000000     0.947650000000     0.756300000000     0.402735   
C513     C      0.008960000000     0.758950000000     0.944990000000     0.397241   
C514     C      0.008960000000     0.758950000000     0.567610000000     0.397325   
C515     C      0.008960000000     0.697510000000     0.006300000000     0.399664   
C516     C      0.008960000000     0.820380000000     0.506300000000     0.4        
C517     C      0.008960000000     0.758960000000     0.694980000000     0.397761   
C518     C      0.008960000000     0.758960000000     0.817620000000     0.397962   
C519     C      0.008960000000     0.697490000000     0.756300000000     0.399906   
C520     C      0.008960000000     0.820430000000     0.756300000000     0.399887   
C521     C      0.758970000000     0.008950000000     0.567600000000     0.397762   
C522     C      0.758970000000     0.008950000000     0.944970000000     0.397423   
C523     C      0.820410000000     0.008950000000     0.506280000000     0.400177   
C524     C      0.697520000000     0.008950000000     0.006290000000     0.399508   
C525     C      0.758960000000     0.008960000000     0.817610000000     0.398079   
C526     C      0.758960000000     0.008960000000     0.694960000000     0.398001   
C527     C      0.820440000000     0.008960000000     0.756290000000     0.400008   
C528     C      0.697470000000     0.008960000000     0.756280000000     0.399939   
C529     C      0.759180000000     0.536220000000     0.897350000000     0.0301362  
C530     C      0.758740000000     0.981690000000     0.897350000000     0.0335345  
C531     C      0.758960000000     0.981690000000     0.865230000000     0.0334957  
C532     C      0.758950000000     0.536220000000     0.865230000000     0.0302575  
C533     C      0.758970000000     0.536220000000     0.647340000000     0.0301006  
C534     C      0.758960000000     0.981690000000     0.647340000000     0.0334112  
C535     C      0.759190000000     0.981690000000     0.615220000000     0.0333293  
C536     C      0.758750000000     0.536220000000     0.615220000000     0.0300698  
C537     C      0.036090000000     0.761660000000     0.897370000000     0.0293785  
C538     C      0.981830000000     0.756240000000     0.897370000000     0.033411   
C539     C      0.981830000000     0.756250000000     0.865240000000     0.0335029  
C540     C      0.036090000000     0.761660000000     0.865240000000     0.0294367  
C541     C      0.981830000000     0.761660000000     0.615230000000     0.0332852  
C542     C      0.536090000000     0.756230000000     0.615230000000     0.0299598  
C543     C      0.536090000000     0.756250000000     0.647360000000     0.030037   
C544     C      0.981830000000     0.761660000000     0.647360000000     0.033367   
C545     C      0.617740000000     0.989230000000     0.775090000000     0.0351443  
C546     C      0.617740000000     0.528690000000     0.737490000000     0.031295   
C547     C      0.650000000000     0.529720000000     0.738620000000     0.0317946  
C548     C      0.650000000000     0.988200000000     0.773960000000     0.0350764  
C549     C      0.867920000000     0.529720000000     0.773960000000     0.0320232  
C550     C      0.867920000000     0.988200000000     0.738620000000     0.035183   
C551     C      0.900180000000     0.989230000000     0.737490000000     0.0353369  
C552     C      0.900180000000     0.528690000000     0.775100000000     0.0314273  
C553     C      0.989350000000     0.900180000000     0.775220000000     0.0354003  
C554     C      0.528570000000     0.900180000000     0.737370000000     0.0314887  
C555     C      0.529600000000     0.867910000000     0.738500000000     0.0320329  
C556     C      0.988320000000     0.867920000000     0.774100000000     0.0352071  
C557     C      0.528570000000     0.617750000000     0.775220000000     0.0313858  
C558     C      0.989350000000     0.617750000000     0.737370000000     0.0351234  
C559     C      0.988320000000     0.650010000000     0.738500000000     0.0351083  
C560     C      0.529600000000     0.650010000000     0.774100000000     0.0318268  
C561     C      0.617870000000     0.991070000000     0.526850000000     0.0362097  
C562     C      0.617860000000     0.526830000000     0.985730000000     0.0346232  
C563     C      0.650120000000     0.528060000000     0.986850000000     0.0346713  
C564     C      0.650120000000     0.989850000000     0.525730000000     0.0353572  
C565     C      0.900070000000     0.526830000000     0.526850000000     0.0325154  
C566     C      0.900070000000     0.991060000000     0.985730000000     0.038588   
C567     C      0.867810000000     0.989850000000     0.986840000000     0.0381343  
C568     C      0.867810000000     0.528050000000     0.525730000000     0.0322973  
C569     C      0.526720000000     0.900040000000     0.526970000000     0.0324694  
C570     C      0.991220000000     0.900040000000     0.985620000000     0.0386174  
C571     C      0.989990000000     0.867780000000     0.986730000000     0.0379972  
C572     C      0.527940000000     0.867780000000     0.525860000000     0.032247   
C573     C      0.526720000000     0.617850000000     0.985620000000     0.0345179  
C574     C      0.991210000000     0.617850000000     0.526960000000     0.0362226  
C575     C      0.989980000000     0.650110000000     0.525860000000     0.0352703  
C576     C      0.527940000000     0.650110000000     0.986730000000     0.0346561  
Cu1      Cu     0.008970000000     0.508940000000     0.477820000000     0.8461     
Cu2      Cu     0.508970000000     0.008940000000     0.034770000000     0.842483   
Cu3      Cu     0.508960000000     0.008960000000     0.228160000000     0.83848    
Cu4      Cu     0.008960000000     0.508960000000     0.284440000000     0.838509   
Cu5      Cu     0.037440000000     0.258940000000     0.006300000000     0.839467   
Cu6      Cu     0.480490000000     0.258940000000     0.506300000000     0.847126   
Cu7      Cu     0.037440000000     0.258960000000     0.256300000000     0.842464   
Cu8      Cu     0.480480000000     0.258960000000     0.256300000000     0.847434   
Cu9      Cu     0.258970000000     0.480460000000     0.506290000000     0.847753   
Cu10     Cu     0.258970000000     0.037450000000     0.006290000000     0.839872   
Cu11     Cu     0.258960000000     0.480450000000     0.256290000000     0.847763   
Cu12     Cu     0.258960000000     0.037460000000     0.256290000000     0.842861   
Cu13     Cu     0.008970000000     0.508940000000     0.977820000000     0.848069   
Cu14     Cu     0.508970000000     0.008940000000     0.534770000000     0.845857   
Cu15     Cu     0.508960000000     0.008960000000     0.728160000000     0.838377   
Cu16     Cu     0.008960000000     0.508960000000     0.784430000000     0.838579   
Cu17     Cu     0.037440000000     0.258940000000     0.506300000000     0.842293   
Cu18     Cu     0.480490000000     0.258940000000     0.006300000000     0.844536   
Cu19     Cu     0.037440000000     0.258960000000     0.756300000000     0.842401   
Cu20     Cu     0.480480000000     0.258960000000     0.756300000000     0.847384   
Cu21     Cu     0.258970000000     0.480460000000     0.006290000000     0.845022   
Cu22     Cu     0.258970000000     0.037450000000     0.506290000000     0.842585   
Cu23     Cu     0.258960000000     0.480450000000     0.756290000000     0.847837   
Cu24     Cu     0.258960000000     0.037460000000     0.756290000000     0.842954   
Cu25     Cu     0.008970000000     0.008940000000     0.477820000000     0.842115   
Cu26     Cu     0.508970000000     0.508940000000     0.034770000000     0.846446   
Cu27     Cu     0.508960000000     0.508960000000     0.228160000000     0.842447   
Cu28     Cu     0.008960000000     0.008960000000     0.284440000000     0.834705   
Cu29     Cu     0.037440000000     0.758940000000     0.006300000000     0.839497   
Cu30     Cu     0.480490000000     0.758940000000     0.506300000000     0.847145   
Cu31     Cu     0.037440000000     0.758960000000     0.256300000000     0.842462   
Cu32     Cu     0.480480000000     0.758960000000     0.256300000000     0.847434   
Cu33     Cu     0.258970000000     0.980460000000     0.506290000000     0.850594   
Cu34     Cu     0.258970000000     0.537450000000     0.006290000000     0.844857   
Cu35     Cu     0.258960000000     0.980450000000     0.256290000000     0.850644   
Cu36     Cu     0.258960000000     0.537460000000     0.256290000000     0.84781    
Cu37     Cu     0.008970000000     0.008940000000     0.977820000000     0.844095   
Cu38     Cu     0.508970000000     0.508940000000     0.534770000000     0.849841   
Cu39     Cu     0.508960000000     0.508960000000     0.728160000000     0.842344   
Cu40     Cu     0.008960000000     0.008960000000     0.784430000000     0.83478    
Cu41     Cu     0.037440000000     0.758940000000     0.506300000000     0.842318   
Cu42     Cu     0.480490000000     0.758940000000     0.006300000000     0.844556   
Cu43     Cu     0.037440000000     0.758960000000     0.756300000000     0.842416   
Cu44     Cu     0.480480000000     0.758960000000     0.756300000000     0.847384   
Cu45     Cu     0.258970000000     0.980460000000     0.006290000000     0.847867   
Cu46     Cu     0.258970000000     0.537450000000     0.506290000000     0.847587   
Cu47     Cu     0.258960000000     0.980450000000     0.756290000000     0.850736   
Cu48     Cu     0.258960000000     0.537460000000     0.756290000000     0.847869   
Cu49     Cu     0.508970000000     0.508940000000     0.477820000000     0.850081   
Cu50     Cu     0.008970000000     0.008940000000     0.034770000000     0.838495   
Cu51     Cu     0.008960000000     0.008960000000     0.228160000000     0.834538   
Cu52     Cu     0.508960000000     0.508960000000     0.284440000000     0.842452   
Cu53     Cu     0.537440000000     0.258940000000     0.006300000000     0.844418   
Cu54     Cu     0.980490000000     0.258940000000     0.506300000000     0.850128   
Cu55     Cu     0.537440000000     0.258960000000     0.256300000000     0.84738    
Cu56     Cu     0.980480000000     0.258960000000     0.256300000000     0.850346   
Cu57     Cu     0.758970000000     0.480460000000     0.506290000000     0.847754   
Cu58     Cu     0.758970000000     0.037450000000     0.006290000000     0.839906   
Cu59     Cu     0.758960000000     0.480450000000     0.256290000000     0.847755   
Cu60     Cu     0.758960000000     0.037460000000     0.256290000000     0.843011   
Cu61     Cu     0.508970000000     0.508940000000     0.977820000000     0.852073   
Cu62     Cu     0.008970000000     0.008940000000     0.534770000000     0.841876   
Cu63     Cu     0.008960000000     0.008960000000     0.728160000000     0.834414   
Cu64     Cu     0.508960000000     0.508960000000     0.784430000000     0.84239    
Cu65     Cu     0.537430000000     0.258940000000     0.506300000000     0.847229   
Cu66     Cu     0.980490000000     0.258940000000     0.006300000000     0.847455   
Cu67     Cu     0.537440000000     0.258960000000     0.756300000000     0.84733    
Cu68     Cu     0.980480000000     0.258960000000     0.756300000000     0.850294   
Cu69     Cu     0.758970000000     0.480460000000     0.006290000000     0.845023   
Cu70     Cu     0.758970000000     0.037450000000     0.506290000000     0.84262    
Cu71     Cu     0.758960000000     0.480450000000     0.756290000000     0.84783    
Cu72     Cu     0.758960000000     0.037460000000     0.756290000000     0.843109   
Cu73     Cu     0.508970000000     0.008940000000     0.477820000000     0.846098   
Cu74     Cu     0.008970000000     0.508940000000     0.034770000000     0.842459   
Cu75     Cu     0.008960000000     0.508960000000     0.228160000000     0.838505   
Cu76     Cu     0.508960000000     0.008960000000     0.284440000000     0.838649   
Cu77     Cu     0.537440000000     0.758940000000     0.006300000000     0.844428   
Cu78     Cu     0.980490000000     0.758940000000     0.506300000000     0.850137   
Cu79     Cu     0.537440000000     0.758960000000     0.256300000000     0.84738    
Cu80     Cu     0.980480000000     0.758960000000     0.256300000000     0.850336   
Cu81     Cu     0.758970000000     0.980460000000     0.506290000000     0.850585   
Cu82     Cu     0.758970000000     0.537450000000     0.006290000000     0.844877   
Cu83     Cu     0.758960000000     0.980450000000     0.256290000000     0.850642   
Cu84     Cu     0.758960000000     0.537460000000     0.256290000000     0.847951   
Cu85     Cu     0.508970000000     0.008940000000     0.977820000000     0.848099   
Cu86     Cu     0.008970000000     0.508940000000     0.534770000000     0.845856   
Cu87     Cu     0.008960000000     0.508960000000     0.728160000000     0.838383   
Cu88     Cu     0.508960000000     0.008960000000     0.784430000000     0.838591   
Cu89     Cu     0.537430000000     0.758940000000     0.506300000000     0.847239   
Cu90     Cu     0.980490000000     0.758940000000     0.006300000000     0.847459   
Cu91     Cu     0.537440000000     0.758960000000     0.756300000000     0.84733    
Cu92     Cu     0.980480000000     0.758960000000     0.756300000000     0.850284   
Cu93     Cu     0.758970000000     0.980460000000     0.006290000000     0.847857   
Cu94     Cu     0.758970000000     0.537450000000     0.506290000000     0.847607   
Cu95     Cu     0.758960000000     0.980450000000     0.756290000000     0.850728   
Cu96     Cu     0.758960000000     0.537460000000     0.756290000000     0.84801    
H1       H      0.259290000000     0.058390000000     0.409000000000     0.0387628  
H2       H      0.258640000000     0.459520000000     0.409000000000     0.038718   
H3       H      0.258890000000     0.459520000000     0.353580000000     0.0386905  
H4       H      0.259030000000     0.058390000000     0.353580000000     0.038681   
H5       H      0.258900000000     0.058390000000     0.158990000000     0.0386323  
H6       H      0.259030000000     0.459520000000     0.158990000000     0.0386324  
H7       H      0.259290000000     0.459520000000     0.103570000000     0.0386178  
H8       H      0.258650000000     0.058390000000     0.103570000000     0.0386125  
H9       H      0.558160000000     0.263870000000     0.409010000000     0.0388776  
H10      H      0.459770000000     0.254030000000     0.409010000000     0.0388902  
H11      H      0.459760000000     0.254050000000     0.353600000000     0.0388223  
H12      H      0.558160000000     0.263860000000     0.353600000000     0.038812   
H13      H      0.459770000000     0.263870000000     0.103590000000     0.0387708  
H14      H      0.058160000000     0.254030000000     0.103590000000     0.0387586  
H15      H      0.058160000000     0.254050000000     0.159000000000     0.0387702  
H16      H      0.459760000000     0.263860000000     0.159000000000     0.0387684  
H17      H      0.105740000000     0.473110000000     0.290030000000     0.0369074  
H18      H      0.105730000000     0.044810000000     0.222550000000     0.036726   
H19      H      0.162000000000     0.046260000000     0.224140000000     0.0364455  
H20      H      0.162000000000     0.471660000000     0.288430000000     0.0365586  
H21      H      0.355920000000     0.046260000000     0.288440000000     0.0365104  
H22      H      0.355920000000     0.471660000000     0.224150000000     0.036581   
H23      H      0.412180000000     0.473110000000     0.222550000000     0.0370391  
H24      H      0.412180000000     0.044810000000     0.290030000000     0.0368869  
H25      H      0.473320000000     0.412180000000     0.290260000000     0.036871   
H26      H      0.044600000000     0.412170000000     0.222340000000     0.0367086  
H27      H      0.046050000000     0.355920000000     0.223910000000     0.0364338  
H28      H      0.471870000000     0.355920000000     0.288690000000     0.0365559  
H29      H      0.044600000000     0.105750000000     0.290260000000     0.0365945  
H30      H      0.473320000000     0.105750000000     0.222340000000     0.0367491  
H31      H      0.471870000000     0.162010000000     0.223910000000     0.0364805  
H32      H      0.046050000000     0.162010000000     0.288690000000     0.0364165  
H33      H      0.105820000000     0.476440000000     0.043210000000     0.0349842  
H34      H      0.105810000000     0.041460000000     0.469370000000     0.0348022  
H35      H      0.162170000000     0.043230000000     0.470990000000     0.0356748  
H36      H      0.162170000000     0.474680000000     0.041600000000     0.0356412  
H37      H      0.412120000000     0.041450000000     0.043210000000     0.0348869  
H38      H      0.412120000000     0.476440000000     0.469370000000     0.0350917  
H39      H      0.355770000000     0.474680000000     0.470980000000     0.0358359  
H40      H      0.355770000000     0.043220000000     0.041590000000     0.035578   
H41      H      0.041250000000     0.412090000000     0.043410000000     0.0349312  
H42      H      0.476690000000     0.412090000000     0.469180000000     0.0351199  
H43      H      0.474920000000     0.355740000000     0.470770000000     0.0358651  
H44      H      0.043010000000     0.355740000000     0.041820000000     0.0356226  
H45      H      0.041240000000     0.105800000000     0.469180000000     0.0348691  
H46      H      0.476680000000     0.105800000000     0.043410000000     0.0349758  
H47      H      0.474920000000     0.162150000000     0.041820000000     0.0357122  
H48      H      0.043010000000     0.162150000000     0.470770000000     0.0357225  
H49      H      0.259290000000     0.058390000000     0.909000000000     0.0391193  
H50      H      0.258640000000     0.459520000000     0.909000000000     0.0390745  
H51      H      0.258890000000     0.459520000000     0.853580000000     0.0388237  
H52      H      0.259020000000     0.058390000000     0.853580000000     0.038815   
H53      H      0.258900000000     0.058390000000     0.658990000000     0.0386884  
H54      H      0.259030000000     0.459520000000     0.659000000000     0.0386982  
H55      H      0.259290000000     0.459520000000     0.603570000000     0.0387387  
H56      H      0.258650000000     0.058390000000     0.603570000000     0.0387324  
H57      H      0.558160000000     0.263870000000     0.909010000000     0.0392332  
H58      H      0.459770000000     0.254030000000     0.909010000000     0.0392489  
H59      H      0.459760000000     0.254050000000     0.853600000000     0.0389609  
H60      H      0.558160000000     0.263860000000     0.853600000000     0.0389515  
H61      H      0.459770000000     0.263870000000     0.603590000000     0.0388955  
H62      H      0.058160000000     0.254030000000     0.603590000000     0.0388797  
H63      H      0.058160000000     0.254050000000     0.659000000000     0.0388272  
H64      H      0.459760000000     0.263860000000     0.659000000000     0.0388286  
H65      H      0.105740000000     0.473110000000     0.790030000000     0.0369766  
H66      H      0.105730000000     0.044810000000     0.722550000000     0.0367517  
H67      H      0.162000000000     0.046260000000     0.724140000000     0.0364735  
H68      H      0.162000000000     0.471660000000     0.788430000000     0.0366269  
H69      H      0.355920000000     0.046260000000     0.788440000000     0.0365813  
H70      H      0.355920000000     0.471660000000     0.724150000000     0.0366203  
H71      H      0.412180000000     0.473110000000     0.722550000000     0.0370514  
H72      H      0.412180000000     0.044810000000     0.790030000000     0.0369726  
H73      H      0.473320000000     0.412180000000     0.790260000000     0.0369303  
H74      H      0.044600000000     0.412170000000     0.722340000000     0.0367295  
H75      H      0.046050000000     0.355920000000     0.723910000000     0.0364715  
H76      H      0.471870000000     0.355920000000     0.788690000000     0.0366007  
H77      H      0.044600000000     0.105750000000     0.790260000000     0.0366475  
H78      H      0.473320000000     0.105750000000     0.722340000000     0.0367647  
H79      H      0.471870000000     0.162010000000     0.723910000000     0.036519   
H80      H      0.046050000000     0.162010000000     0.788690000000     0.0364851  
H81      H      0.105820000000     0.476440000000     0.543210000000     0.0350091  
H82      H      0.105810000000     0.041460000000     0.969370000000     0.0348671  
H83      H      0.162170000000     0.043230000000     0.970990000000     0.0359119  
H84      H      0.162170000000     0.474680000000     0.541600000000     0.0357551  
H85      H      0.412120000000     0.041450000000     0.543210000000     0.0349218  
H86      H      0.412120000000     0.476440000000     0.969370000000     0.0351662  
H87      H      0.355760000000     0.474680000000     0.970980000000     0.0360435  
H88      H      0.355770000000     0.043220000000     0.541590000000     0.0356786  
H89      H      0.041250000000     0.412090000000     0.543410000000     0.0349612  
H90      H      0.476690000000     0.412090000000     0.969170000000     0.035171   
H91      H      0.474920000000     0.355730000000     0.970770000000     0.0361071  
H92      H      0.043010000000     0.355740000000     0.541820000000     0.035737   
H93      H      0.041240000000     0.105800000000     0.969180000000     0.0349263  
H94      H      0.476680000000     0.105800000000     0.543410000000     0.0350054  
H95      H      0.474920000000     0.162150000000     0.541820000000     0.0358249  
H96      H      0.043010000000     0.162150000000     0.970770000000     0.0359585  
H97      H      0.259290000000     0.558390000000     0.409000000000     0.0387329  
H98      H      0.258640000000     0.959520000000     0.409000000000     0.0385399  
H99      H      0.258890000000     0.959520000000     0.353580000000     0.0385011  
H100     H      0.259020000000     0.558390000000     0.353580000000     0.0386565  
H101     H      0.258900000000     0.558390000000     0.158990000000     0.0386068  
H102     H      0.259030000000     0.959520000000     0.158990000000     0.0384424  
H103     H      0.259290000000     0.959520000000     0.103570000000     0.0384407  
H104     H      0.258650000000     0.558390000000     0.103570000000     0.0385825  
H105     H      0.558160000000     0.763870000000     0.409010000000     0.0389146  
H106     H      0.459770000000     0.754030000000     0.409010000000     0.0389169  
H107     H      0.459760000000     0.754050000000     0.353600000000     0.0388498  
H108     H      0.558160000000     0.763870000000     0.353600000000     0.0388516  
H109     H      0.459770000000     0.763870000000     0.103590000000     0.0388079  
H110     H      0.058160000000     0.754030000000     0.103590000000     0.0387852  
H111     H      0.058160000000     0.754050000000     0.159000000000     0.0387982  
H112     H      0.459760000000     0.763860000000     0.159000000000     0.0388084  
H113     H      0.105730000000     0.973120000000     0.290030000000     0.0373097  
H114     H      0.105730000000     0.544810000000     0.222550000000     0.0368855  
H115     H      0.162000000000     0.546260000000     0.224140000000     0.0365224  
H116     H      0.162000000000     0.971660000000     0.288430000000     0.0366656  
H117     H      0.355910000000     0.546260000000     0.288440000000     0.0365963  
H118     H      0.355920000000     0.971660000000     0.224150000000     0.0366981  
H119     H      0.412180000000     0.973110000000     0.222550000000     0.0374032  
H120     H      0.412180000000     0.544810000000     0.290040000000     0.0370476  
H121     H      0.473320000000     0.912180000000     0.290260000000     0.0373756  
H122     H      0.044600000000     0.912170000000     0.222340000000     0.037212   
H123     H      0.046050000000     0.855920000000     0.223910000000     0.0365715  
H124     H      0.471870000000     0.855920000000     0.288690000000     0.0366853  
H125     H      0.044600000000     0.605750000000     0.290260000000     0.0367053  
H126     H      0.473320000000     0.605750000000     0.222340000000     0.0368579  
H127     H      0.471870000000     0.662010000000     0.223910000000     0.0365099  
H128     H      0.046050000000     0.662010000000     0.288690000000     0.036446   
H129     H      0.105820000000     0.976440000000     0.043210000000     0.0353478  
H130     H      0.105810000000     0.541460000000     0.469370000000     0.034984   
H131     H      0.162170000000     0.543230000000     0.470990000000     0.0357796  
H132     H      0.162170000000     0.974680000000     0.041600000000     0.0358439  
H133     H      0.412120000000     0.541450000000     0.043210000000     0.0350696  
H134     H      0.412120000000     0.976440000000     0.469370000000     0.035461   
H135     H      0.355760000000     0.974680000000     0.470980000000     0.0360086  
H136     H      0.355770000000     0.543220000000     0.041590000000     0.0356834  
H137     H      0.041250000000     0.912090000000     0.043410000000     0.0353982  
H138     H      0.476690000000     0.912090000000     0.469180000000     0.0355886  
H139     H      0.474920000000     0.855740000000     0.470770000000     0.0359931  
H140     H      0.043010000000     0.855740000000     0.041820000000     0.0357508  
H141     H      0.041240000000     0.605800000000     0.469180000000     0.0349508  
H142     H      0.476680000000     0.605800000000     0.043410000000     0.0350584  
H143     H      0.474920000000     0.662150000000     0.041820000000     0.0357398  
H144     H      0.043010000000     0.662150000000     0.470770000000     0.0357479  
H145     H      0.259290000000     0.558390000000     0.909000000000     0.0390896  
H146     H      0.258640000000     0.959520000000     0.909000000000     0.0388963  
H147     H      0.258890000000     0.959520000000     0.853580000000     0.0386343  
H148     H      0.259020000000     0.558390000000     0.853580000000     0.0387907  
H149     H      0.258900000000     0.558390000000     0.658990000000     0.0386639  
H150     H      0.259030000000     0.959520000000     0.659000000000     0.0385087  
H151     H      0.259290000000     0.959520000000     0.603570000000     0.038561   
H152     H      0.258650000000     0.558390000000     0.603570000000     0.0387027  
H153     H      0.558160000000     0.763870000000     0.909010000000     0.0392694  
H154     H      0.459770000000     0.754030000000     0.909010000000     0.039275   
H155     H      0.459760000000     0.754050000000     0.853600000000     0.0389881  
H156     H      0.558160000000     0.763870000000     0.853600000000     0.0389909  
H157     H      0.459770000000     0.763870000000     0.603590000000     0.0389327  
H158     H      0.058160000000     0.754030000000     0.603590000000     0.0389091  
H159     H      0.058160000000     0.754050000000     0.659000000000     0.0388533  
H160     H      0.459760000000     0.763860000000     0.659000000000     0.0388687  
H161     H      0.105730000000     0.973120000000     0.790030000000     0.0373691  
H162     H      0.105730000000     0.544810000000     0.722550000000     0.0369121  
H163     H      0.162000000000     0.546260000000     0.724140000000     0.0365566  
H164     H      0.162000000000     0.971660000000     0.788430000000     0.0367491  
H165     H      0.355910000000     0.546260000000     0.788440000000     0.0366656  
H166     H      0.355920000000     0.971660000000     0.724150000000     0.0367379  
H167     H      0.412180000000     0.973110000000     0.722550000000     0.0374151  
H168     H      0.412180000000     0.544810000000     0.790030000000     0.0371377  
H169     H      0.473320000000     0.912180000000     0.790260000000     0.037433   
H170     H      0.044600000000     0.912170000000     0.722340000000     0.0372327  
H171     H      0.046050000000     0.855920000000     0.723910000000     0.0366015  
H172     H      0.471870000000     0.855920000000     0.788690000000     0.0367447  
H173     H      0.044600000000     0.605750000000     0.790260000000     0.0367584  
H174     H      0.473320000000     0.605750000000     0.722340000000     0.0368736  
H175     H      0.471870000000     0.662010000000     0.723910000000     0.0365485  
H176     H      0.046050000000     0.662010000000     0.788690000000     0.0365146  
H177     H      0.105820000000     0.976440000000     0.543210000000     0.0353836  
H178     H      0.105810000000     0.541460000000     0.969370000000     0.0350518  
H179     H      0.162170000000     0.543230000000     0.970980000000     0.0360064  
H180     H      0.162170000000     0.974680000000     0.541600000000     0.0359337  
H181     H      0.412120000000     0.541450000000     0.543210000000     0.0351047  
H182     H      0.412120000000     0.976440000000     0.969370000000     0.0355457  
H183     H      0.355760000000     0.974680000000     0.970980000000     0.0362198  
H184     H      0.355770000000     0.543220000000     0.541590000000     0.0357841  
H185     H      0.041250000000     0.912090000000     0.543410000000     0.035428   
H186     H      0.476690000000     0.912090000000     0.969170000000     0.0356387  
H187     H      0.474920000000     0.855730000000     0.970770000000     0.0362343  
H188     H      0.043010000000     0.855740000000     0.541820000000     0.0358628  
H189     H      0.041240000000     0.605800000000     0.969180000000     0.0350076  
H190     H      0.476680000000     0.605800000000     0.543410000000     0.0350886  
H191     H      0.474920000000     0.662150000000     0.541820000000     0.0358529  
H192     H      0.043010000000     0.662150000000     0.970770000000     0.0359835  
H193     H      0.759280000000     0.058390000000     0.409000000000     0.0387977  
H194     H      0.758640000000     0.459520000000     0.409000000000     0.0387484  
H195     H      0.758890000000     0.459520000000     0.353580000000     0.0387216  
H196     H      0.759030000000     0.058390000000     0.353580000000     0.038713   
H197     H      0.758900000000     0.058390000000     0.158990000000     0.0386626  
H198     H      0.759030000000     0.459520000000     0.158990000000     0.0386653  
H199     H      0.759290000000     0.459520000000     0.103570000000     0.0386524  
H200     H      0.758650000000     0.058390000000     0.103570000000     0.0386438  
H201     H      0.058160000000     0.263870000000     0.409010000000     0.038888   
H202     H      0.959770000000     0.254030000000     0.409010000000     0.0387143  
H203     H      0.959760000000     0.254050000000     0.353600000000     0.0386446  
H204     H      0.058160000000     0.263860000000     0.353600000000     0.0388284  
H205     H      0.959770000000     0.263870000000     0.103590000000     0.0385936  
H206     H      0.558160000000     0.254030000000     0.103590000000     0.0387443  
H207     H      0.558160000000     0.254050000000     0.159000000000     0.0387543  
H208     H      0.959770000000     0.263860000000     0.159000000000     0.0386036  
H209     H      0.605730000000     0.473110000000     0.290030000000     0.0370339  
H210     H      0.605730000000     0.044810000000     0.222550000000     0.0368468  
H211     H      0.662000000000     0.046260000000     0.224140000000     0.0364757  
H212     H      0.662000000000     0.471660000000     0.288430000000     0.0365928  
H213     H      0.855920000000     0.046260000000     0.288440000000     0.0366489  
H214     H      0.855920000000     0.471660000000     0.224150000000     0.0367202  
H215     H      0.912180000000     0.473110000000     0.222550000000     0.0375551  
H216     H      0.912180000000     0.044810000000     0.290030000000     0.0374035  
H217     H      0.973320000000     0.412180000000     0.290260000000     0.0372125  
H218     H      0.544600000000     0.412180000000     0.222340000000     0.0368572  
H219     H      0.546050000000     0.355920000000     0.223910000000     0.0365031  
H220     H      0.971870000000     0.355920000000     0.288690000000     0.036641   
H221     H      0.544600000000     0.105750000000     0.290260000000     0.0367356  
H222     H      0.973320000000     0.105750000000     0.222340000000     0.037102   
H223     H      0.971870000000     0.162010000000     0.223910000000     0.03656    
H224     H      0.546050000000     0.162010000000     0.288690000000     0.0364842  
H225     H      0.605820000000     0.476440000000     0.043210000000     0.0350543  
H226     H      0.605810000000     0.041460000000     0.469370000000     0.0348788  
H227     H      0.662170000000     0.043230000000     0.470990000000     0.0357004  
H228     H      0.662170000000     0.474680000000     0.041600000000     0.0356622  
H229     H      0.912120000000     0.041450000000     0.043210000000     0.0353497  
H230     H      0.912120000000     0.476440000000     0.469370000000     0.0355532  
H231     H      0.855770000000     0.474680000000     0.470980000000     0.0359589  
H232     H      0.855770000000     0.043220000000     0.041590000000     0.035705   
H233     H      0.541240000000     0.412090000000     0.043410000000     0.0350996  
H234     H      0.976690000000     0.412090000000     0.469180000000     0.0354763  
H235     H      0.974920000000     0.355740000000     0.470770000000     0.0360397  
H236     H      0.543010000000     0.355740000000     0.041820000000     0.0357277  
H237     H      0.541240000000     0.105800000000     0.469180000000     0.0350349  
H238     H      0.976680000000     0.105800000000     0.043410000000     0.0353401  
H239     H      0.974920000000     0.162150000000     0.041820000000     0.035876   
H240     H      0.543010000000     0.162150000000     0.470770000000     0.0358171  
H241     H      0.759280000000     0.058390000000     0.909000000000     0.0391535  
H242     H      0.758640000000     0.459520000000     0.909000000000     0.039104   
H243     H      0.758890000000     0.459520000000     0.853580000000     0.0388543  
H244     H      0.759030000000     0.058390000000     0.853580000000     0.0388465  
H245     H      0.758900000000     0.058390000000     0.658990000000     0.0387187  
H246     H      0.759030000000     0.459520000000     0.659000000000     0.0387312  
H247     H      0.759290000000     0.459520000000     0.603570000000     0.0387736  
H248     H      0.758650000000     0.058390000000     0.603570000000     0.0387639  
H249     H      0.058160000000     0.263870000000     0.909010000000     0.0392484  
H250     H      0.959770000000     0.254030000000     0.909010000000     0.0390734  
H251     H      0.959760000000     0.254050000000     0.853600000000     0.0387848  
H252     H      0.058160000000     0.263860000000     0.853600000000     0.038968   
H253     H      0.959770000000     0.263870000000     0.603590000000     0.0387258  
H254     H      0.558160000000     0.254030000000     0.603590000000     0.0388654  
H255     H      0.558160000000     0.254050000000     0.659000000000     0.0388127  
H256     H      0.959770000000     0.263860000000     0.659000000000     0.0386613  
H257     H      0.605730000000     0.473110000000     0.790030000000     0.0371031  
H258     H      0.605730000000     0.044810000000     0.722550000000     0.0368719  
H259     H      0.662000000000     0.046260000000     0.724140000000     0.0365012  
H260     H      0.662000000000     0.471660000000     0.788430000000     0.0366608  
H261     H      0.855920000000     0.046260000000     0.788440000000     0.0367186  
H262     H      0.855920000000     0.471660000000     0.724150000000     0.0367594  
H263     H      0.912180000000     0.473110000000     0.722550000000     0.0375682  
H264     H      0.912180000000     0.044810000000     0.790030000000     0.0374848  
H265     H      0.973320000000     0.412180000000     0.790260000000     0.0372694  
H266     H      0.544600000000     0.412180000000     0.722340000000     0.0368792  
H267     H      0.546050000000     0.355920000000     0.723910000000     0.0365328  
H268     H      0.971870000000     0.355920000000     0.788690000000     0.0367074  
H269     H      0.544600000000     0.105750000000     0.790260000000     0.0367884  
H270     H      0.973320000000     0.105750000000     0.722340000000     0.0371177  
H271     H      0.971870000000     0.162010000000     0.723910000000     0.0365909  
H272     H      0.546050000000     0.162010000000     0.788690000000     0.0365521  
H273     H      0.605820000000     0.476440000000     0.543210000000     0.0350781  
H274     H      0.605810000000     0.041460000000     0.969370000000     0.0349357  
H275     H      0.662170000000     0.043230000000     0.970990000000     0.0359378  
H276     H      0.662170000000     0.474680000000     0.541600000000     0.0357757  
H277     H      0.912120000000     0.041450000000     0.543210000000     0.0353849  
H278     H      0.912120000000     0.476440000000     0.969370000000     0.0356266  
H279     H      0.855760000000     0.474680000000     0.970980000000     0.0361656  
H280     H      0.855770000000     0.043220000000     0.541590000000     0.0358058  
H281     H      0.541240000000     0.412090000000     0.543410000000     0.0351271  
H282     H      0.976690000000     0.412090000000     0.969170000000     0.035527   
H283     H      0.974920000000     0.355730000000     0.970770000000     0.0362819  
H284     H      0.543010000000     0.355740000000     0.541820000000     0.0358427  
H285     H      0.541240000000     0.105800000000     0.969170000000     0.0350851  
H286     H      0.976680000000     0.105800000000     0.543410000000     0.0353689  
H287     H      0.974920000000     0.162150000000     0.541820000000     0.035986   
H288     H      0.543010000000     0.162150000000     0.970770000000     0.0360509  
H289     H      0.759280000000     0.558390000000     0.409000000000     0.0387681  
H290     H      0.758640000000     0.959520000000     0.409000000000     0.038571   
H291     H      0.758890000000     0.959520000000     0.353580000000     0.0385324  
H292     H      0.759030000000     0.558390000000     0.353580000000     0.0386886  
H293     H      0.758900000000     0.558390000000     0.158990000000     0.0386374  
H294     H      0.759030000000     0.959520000000     0.158990000000     0.0384769  
H295     H      0.759290000000     0.959520000000     0.103570000000     0.038476   
H296     H      0.758650000000     0.558390000000     0.103570000000     0.0386136  
H297     H      0.058160000000     0.763870000000     0.409010000000     0.0389245  
H298     H      0.959770000000     0.754030000000     0.409010000000     0.0387415  
H299     H      0.959760000000     0.754050000000     0.353600000000     0.0386726  
H300     H      0.058160000000     0.763860000000     0.353600000000     0.0388676  
H301     H      0.959770000000     0.763870000000     0.103590000000     0.0386311  
H302     H      0.558160000000     0.754030000000     0.103590000000     0.0387735  
H303     H      0.558160000000     0.754050000000     0.159000000000     0.0387804  
H304     H      0.959770000000     0.763870000000     0.159000000000     0.0386439  
H305     H      0.605730000000     0.973120000000     0.290030000000     0.0374279  
H306     H      0.605730000000     0.544810000000     0.222550000000     0.0370051  
H307     H      0.662000000000     0.546260000000     0.224140000000     0.0365509  
H308     H      0.662000000000     0.971660000000     0.288430000000     0.036696   
H309     H      0.855910000000     0.546260000000     0.288440000000     0.0367342  
H310     H      0.855920000000     0.971660000000     0.224150000000     0.0368389  
H311     H      0.912180000000     0.973110000000     0.222550000000     0.0379155  
H312     H      0.912180000000     0.544810000000     0.290040000000     0.0375627  
H313     H      0.973320000000     0.912180000000     0.290260000000     0.0377122  
H314     H      0.544600000000     0.912180000000     0.222340000000     0.0373597  
H315     H      0.546050000000     0.855920000000     0.223910000000     0.0366322  
H316     H      0.971870000000     0.855920000000     0.288690000000     0.0367852  
H317     H      0.544600000000     0.605750000000     0.290260000000     0.0368465  
H318     H      0.973320000000     0.605750000000     0.222340000000     0.0372094  
H319     H      0.971870000000     0.662010000000     0.223910000000     0.0365888  
H320     H      0.546050000000     0.662010000000     0.288690000000     0.036514   
H321     H      0.605820000000     0.976440000000     0.043210000000     0.0354168  
H322     H      0.605810000000     0.541460000000     0.469370000000     0.0350617  
H323     H      0.662170000000     0.543230000000     0.470990000000     0.0358058  
H324     H      0.662170000000     0.974680000000     0.041600000000     0.0358644  
H325     H      0.912120000000     0.541450000000     0.043210000000     0.035531   
H326     H      0.912120000000     0.976440000000     0.469370000000     0.0359182  
H327     H      0.855770000000     0.974680000000     0.470980000000     0.036124   
H328     H      0.855770000000     0.543220000000     0.041590000000     0.0358099  
H329     H      0.541240000000     0.912090000000     0.043410000000     0.0355649  
H330     H      0.976690000000     0.912090000000     0.469180000000     0.0359412  
H331     H      0.974920000000     0.855740000000     0.470770000000     0.0361663  
H332     H      0.543010000000     0.855740000000     0.041820000000     0.0358532  
H333     H      0.541240000000     0.605800000000     0.469180000000     0.0351176  
H334     H      0.976680000000     0.605800000000     0.043410000000     0.0354214  
H335     H      0.974920000000     0.662150000000     0.041820000000     0.0359007  
H336     H      0.543010000000     0.662150000000     0.470770000000     0.0358427  
H337     H      0.759280000000     0.558390000000     0.909000000000     0.0391237  
H338     H      0.758640000000     0.959520000000     0.909000000000     0.0389263  
H339     H      0.758890000000     0.959520000000     0.853580000000     0.0386654  
H340     H      0.759030000000     0.558390000000     0.853580000000     0.0388222  
H341     H      0.758900000000     0.558390000000     0.658990000000     0.0386947  
H342     H      0.759030000000     0.959520000000     0.659000000000     0.0385428  
H343     H      0.759290000000     0.959520000000     0.603570000000     0.0385964  
H344     H      0.758650000000     0.558390000000     0.603570000000     0.0387343  
H345     H      0.058160000000     0.763870000000     0.909010000000     0.0392845  
H346     H      0.959770000000     0.754030000000     0.909010000000     0.0391001  
H347     H      0.959760000000     0.754050000000     0.853600000000     0.0388126  
H348     H      0.058160000000     0.763860000000     0.853600000000     0.0390082  
H349     H      0.959770000000     0.763870000000     0.603590000000     0.0387635  
H350     H      0.558160000000     0.754030000000     0.603590000000     0.0388949  
H351     H      0.558160000000     0.754050000000     0.659000000000     0.0388389  
H352     H      0.959770000000     0.763870000000     0.659000000000     0.0387011  
H353     H      0.605730000000     0.973120000000     0.790030000000     0.0374883  
H354     H      0.605730000000     0.544810000000     0.722550000000     0.0370324  
H355     H      0.662000000000     0.546260000000     0.724140000000     0.0365854  
H356     H      0.662000000000     0.971660000000     0.788430000000     0.0367819  
H357     H      0.855910000000     0.546260000000     0.788440000000     0.0368025  
H358     H      0.855920000000     0.971660000000     0.724150000000     0.0368783  
H359     H      0.912180000000     0.973110000000     0.722550000000     0.037928   
H360     H      0.912180000000     0.544810000000     0.790030000000     0.0376485  
H361     H      0.973320000000     0.912180000000     0.790260000000     0.0377685  
H362     H      0.544600000000     0.912180000000     0.722340000000     0.037381   
H363     H      0.546050000000     0.855920000000     0.723910000000     0.0366627  
H364     H      0.971870000000     0.855920000000     0.788690000000     0.0368515  
H365     H      0.544600000000     0.605750000000     0.790260000000     0.0368991  
H366     H      0.973320000000     0.605750000000     0.722340000000     0.0372254  
H367     H      0.971870000000     0.662010000000     0.723910000000     0.0366201  
H368     H      0.546050000000     0.662010000000     0.788690000000     0.0365818  
H369     H      0.605820000000     0.976440000000     0.543210000000     0.0354588  
H370     H      0.605810000000     0.541460000000     0.969370000000     0.0351204  
H371     H      0.662170000000     0.543230000000     0.970980000000     0.0360322  
H372     H      0.662170000000     0.974680000000     0.541600000000     0.0359537  
H373     H      0.912120000000     0.541450000000     0.543210000000     0.0355665  
H374     H      0.912120000000     0.976440000000     0.969370000000     0.0360023  
H375     H      0.855760000000     0.974680000000     0.970980000000     0.0363405  
H376     H      0.855770000000     0.543220000000     0.541590000000     0.0359108  
H377     H      0.541240000000     0.912090000000     0.543410000000     0.0355954  
H378     H      0.976690000000     0.912090000000     0.969170000000     0.0359909  
H379     H      0.974920000000     0.855730000000     0.970770000000     0.0364077  
H380     H      0.543010000000     0.855740000000     0.541820000000     0.0359684  
H381     H      0.541240000000     0.605800000000     0.969170000000     0.0351664  
H382     H      0.976680000000     0.605800000000     0.543410000000     0.035451   
H383     H      0.974920000000     0.662150000000     0.541820000000     0.0360134  
H384     H      0.543010000000     0.662150000000     0.970770000000     0.0360758  
N1       N      0.258960000000     0.508950000000     0.413400000000    -0.175382   
N2       N      0.258960000000     0.508960000000     0.349180000000    -0.17539    
N3       N      0.258960000000     0.508960000000     0.163390000000    -0.175391   
N4       N      0.258970000000     0.508960000000     0.099170000000    -0.175384   
N5       N      0.508960000000     0.258950000000     0.413420000000    -0.175342   
N6       N      0.508960000000     0.258960000000     0.349190000000    -0.175401   
N7       N      0.508960000000     0.258950000000     0.099180000000    -0.175347   
N8       N      0.508960000000     0.258960000000     0.163410000000    -0.175407   
N9       N      0.101800000000     0.008960000000     0.256290000000    -0.178444   
N10      N      0.165940000000     0.008960000000     0.256290000000    -0.178012   
N11      N      0.351980000000     0.508960000000     0.256290000000    -0.176447   
N12      N      0.416110000000     0.508960000000     0.256300000000    -0.17608    
N13      N      0.508960000000     0.416110000000     0.256300000000    -0.176108   
N14      N      0.508960000000     0.351970000000     0.256300000000    -0.17642    
N15      N      0.008960000000     0.101810000000     0.256300000000    -0.178389   
N16      N      0.008960000000     0.165950000000     0.256300000000    -0.177983   
N17      N      0.101970000000     0.008950000000     0.506290000000    -0.178891   
N18      N      0.166020000000     0.008950000000     0.506290000000    -0.177939   
N19      N      0.415970000000     0.508940000000     0.006290000000    -0.177636   
N20      N      0.351910000000     0.508950000000     0.006280000000    -0.178022   
N21      N      0.508970000000     0.415940000000     0.006290000000    -0.177587   
N22      N      0.508960000000     0.351880000000     0.006300000000    -0.178015   
N23      N      0.008960000000     0.101950000000     0.506290000000    -0.178831   
N24      N      0.008960000000     0.166010000000     0.506300000000    -0.177957   
N25      N      0.258960000000     0.508950000000     0.913400000000    -0.17517    
N26      N      0.258960000000     0.508960000000     0.849180000000    -0.175373   
N27      N      0.258960000000     0.508960000000     0.663390000000    -0.175387   
N28      N      0.258970000000     0.508960000000     0.599170000000    -0.175395   
N29      N      0.508960000000     0.258950000000     0.913420000000    -0.175132   
N30      N      0.508960000000     0.258960000000     0.849190000000    -0.175401   
N31      N      0.508960000000     0.258950000000     0.599180000000    -0.175344   
N32      N      0.508960000000     0.258960000000     0.663410000000    -0.1754     
N33      N      0.101800000000     0.008960000000     0.756290000000    -0.178436   
N34      N      0.165940000000     0.008960000000     0.756290000000    -0.178032   
N35      N      0.351980000000     0.508960000000     0.756290000000    -0.176438   
N36      N      0.416110000000     0.508960000000     0.756290000000    -0.176074   
N37      N      0.508960000000     0.416110000000     0.756300000000    -0.176095   
N38      N      0.508960000000     0.351970000000     0.756300000000    -0.176425   
N39      N      0.008960000000     0.101810000000     0.756300000000    -0.178424   
N40      N      0.008960000000     0.165950000000     0.756300000000    -0.177969   
N41      N      0.101970000000     0.008950000000     0.006290000000    -0.179872   
N42      N      0.166020000000     0.008950000000     0.006290000000    -0.179475   
N43      N      0.415970000000     0.508940000000     0.506290000000    -0.176615   
N44      N      0.351910000000     0.508950000000     0.506290000000    -0.176429   
N45      N      0.508970000000     0.415940000000     0.506290000000    -0.176555   
N46      N      0.508960000000     0.351880000000     0.506300000000    -0.176443   
N47      N      0.008960000000     0.101950000000     0.006290000000    -0.179852   
N48      N      0.008960000000     0.166010000000     0.006300000000    -0.179517   
N49      N      0.258960000000     0.008950000000     0.413400000000    -0.176898   
N50      N      0.258960000000     0.008960000000     0.349180000000    -0.176955   
N51      N      0.258960000000     0.008960000000     0.163390000000    -0.17695    
N52      N      0.258970000000     0.008960000000     0.099170000000    -0.176897   
N53      N      0.508960000000     0.758950000000     0.413420000000    -0.175337   
N54      N      0.508960000000     0.758960000000     0.349190000000    -0.175387   
N55      N      0.508960000000     0.758950000000     0.099180000000    -0.175339   
N56      N      0.508960000000     0.758960000000     0.163410000000    -0.175394   
N57      N      0.101800000000     0.508960000000     0.256290000000    -0.176175   
N58      N      0.165940000000     0.508960000000     0.256290000000    -0.176494   
N59      N      0.351980000000     0.008960000000     0.256290000000    -0.177956   
N60      N      0.416110000000     0.008960000000     0.256300000000    -0.178372   
N61      N      0.508960000000     0.916120000000     0.256300000000    -0.175876   
N62      N      0.508960000000     0.851970000000     0.256300000000    -0.176405   
N63      N      0.008960000000     0.601810000000     0.256300000000    -0.178416   
N64      N      0.008960000000     0.665950000000     0.256300000000    -0.177978   
N65      N      0.101970000000     0.508950000000     0.506290000000    -0.176594   
N66      N      0.166020000000     0.508950000000     0.506290000000    -0.176433   
N67      N      0.415970000000     0.008940000000     0.006290000000    -0.179921   
N68      N      0.351910000000     0.008950000000     0.006280000000    -0.179518   
N69      N      0.508970000000     0.915940000000     0.006290000000    -0.17728    
N70      N      0.508960000000     0.851880000000     0.006300000000    -0.177991   
N71      N      0.008960000000     0.601950000000     0.506290000000    -0.178852   
N72      N      0.008960000000     0.666010000000     0.506300000000    -0.177951   
N73      N      0.258960000000     0.008950000000     0.913400000000    -0.176683   
N74      N      0.258960000000     0.008960000000     0.849180000000    -0.176935   
N75      N      0.258960000000     0.008960000000     0.663390000000    -0.176948   
N76      N      0.258970000000     0.008960000000     0.599170000000    -0.176908   
N77      N      0.508960000000     0.758950000000     0.913420000000    -0.175127   
N78      N      0.508960000000     0.758960000000     0.849190000000    -0.175388   
N79      N      0.508960000000     0.758950000000     0.599180000000    -0.175336   
N80      N      0.508960000000     0.758960000000     0.663410000000    -0.175386   
N81      N      0.101800000000     0.508960000000     0.756290000000    -0.176164   
N82      N      0.165940000000     0.508960000000     0.756290000000    -0.17649    
N83      N      0.351980000000     0.008960000000     0.756290000000    -0.177945   
N84      N      0.416110000000     0.008960000000     0.756290000000    -0.178369   
N85      N      0.508960000000     0.916120000000     0.756300000000    -0.175864   
N86      N      0.508960000000     0.851970000000     0.756300000000    -0.176399   
N87      N      0.008960000000     0.601810000000     0.756300000000    -0.178451   
N88      N      0.008960000000     0.665950000000     0.756300000000    -0.177964   
N89      N      0.101970000000     0.508950000000     0.006290000000    -0.177571   
N90      N      0.166020000000     0.508950000000     0.006290000000    -0.178005   
N91      N      0.415970000000     0.008940000000     0.506290000000    -0.178927   
N92      N      0.351910000000     0.008950000000     0.506290000000    -0.177952   
N93      N      0.508970000000     0.915940000000     0.506290000000    -0.176249   
N94      N      0.508960000000     0.851880000000     0.506300000000    -0.176422   
N95      N      0.008960000000     0.601950000000     0.006290000000    -0.179874   
N96      N      0.008960000000     0.666010000000     0.006300000000    -0.179511   
N97      N      0.758960000000     0.508950000000     0.413400000000    -0.175373   
N98      N      0.758960000000     0.508960000000     0.349180000000    -0.175383   
N99      N      0.758960000000     0.508960000000     0.163390000000    -0.175384   
N100     N      0.758970000000     0.508960000000     0.099170000000    -0.175371   
N101     N      0.008960000000     0.258950000000     0.413420000000    -0.176909   
N102     N      0.008960000000     0.258960000000     0.349190000000    -0.176965   
N103     N      0.008960000000     0.258950000000     0.099180000000    -0.176911   
N104     N      0.008960000000     0.258960000000     0.163410000000    -0.176964   
N105     N      0.601800000000     0.008960000000     0.256290000000    -0.178463   
N106     N      0.665940000000     0.008960000000     0.256290000000    -0.178003   
N107     N      0.851980000000     0.508960000000     0.256290000000    -0.176433   
N108     N      0.916110000000     0.508960000000     0.256300000000    -0.175774   
N109     N      0.008960000000     0.416110000000     0.256300000000    -0.1784     
N110     N      0.008960000000     0.351970000000     0.256300000000    -0.177947   
N111     N      0.508960000000     0.101810000000     0.256300000000    -0.176104   
N112     N      0.508960000000     0.165950000000     0.256300000000    -0.176407   
N113     N      0.601970000000     0.008950000000     0.506290000000    -0.178912   
N114     N      0.666020000000     0.008950000000     0.506290000000    -0.177932   
N115     N      0.915970000000     0.508940000000     0.006290000000    -0.177328   
N116     N      0.851910000000     0.508950000000     0.006280000000    -0.177996   
N117     N      0.008970000000     0.415940000000     0.006290000000    -0.179874   
N118     N      0.008970000000     0.351880000000     0.006300000000    -0.179508   
N119     N      0.508960000000     0.101950000000     0.506290000000    -0.176536   
N120     N      0.508960000000     0.166010000000     0.506300000000    -0.176446   
N121     N      0.758960000000     0.508950000000     0.913400000000    -0.175161   
N122     N      0.758960000000     0.508960000000     0.849180000000    -0.175366   
N123     N      0.758960000000     0.508960000000     0.663390000000    -0.17538    
N124     N      0.758970000000     0.508960000000     0.599170000000    -0.175381   
N125     N      0.008960000000     0.258950000000     0.913420000000    -0.176693   
N126     N      0.008960000000     0.258960000000     0.849190000000    -0.176961   
N127     N      0.008960000000     0.258950000000     0.599180000000    -0.176867   
N128     N      0.008960000000     0.258960000000     0.663410000000    -0.17696    
N129     N      0.601800000000     0.008960000000     0.756290000000    -0.178454   
N130     N      0.665940000000     0.008960000000     0.756290000000    -0.178023   
N131     N      0.851980000000     0.508960000000     0.756290000000    -0.176425   
N132     N      0.916110000000     0.508960000000     0.756290000000    -0.17576    
N133     N      0.008960000000     0.416110000000     0.756300000000    -0.178388   
N134     N      0.008960000000     0.351970000000     0.756300000000    -0.177926   
N135     N      0.508960000000     0.101810000000     0.756300000000    -0.17614    
N136     N      0.508960000000     0.165950000000     0.756300000000    -0.176387   
N137     N      0.601970000000     0.008950000000     0.006290000000    -0.179942   
N138     N      0.666020000000     0.008950000000     0.006290000000    -0.179467   
N139     N      0.915970000000     0.508940000000     0.506290000000    -0.176309   
N140     N      0.851910000000     0.508950000000     0.506290000000    -0.176407   
N141     N      0.008970000000     0.415940000000     0.506290000000    -0.178853   
N142     N      0.008970000000     0.351880000000     0.506300000000    -0.177951   
N143     N      0.508960000000     0.101950000000     0.006290000000    -0.177567   
N144     N      0.508960000000     0.166010000000     0.006300000000    -0.178014   
N145     N      0.758960000000     0.008950000000     0.413400000000    -0.176884   
N146     N      0.758960000000     0.008960000000     0.349180000000    -0.176943   
N147     N      0.758960000000     0.008960000000     0.163390000000    -0.176942   
N148     N      0.758970000000     0.008960000000     0.099170000000    -0.176879   
N149     N      0.008960000000     0.758950000000     0.413420000000    -0.1769     
N150     N      0.008960000000     0.758960000000     0.349190000000    -0.176946   
N151     N      0.008960000000     0.758950000000     0.099180000000    -0.176901   
N152     N      0.008960000000     0.758960000000     0.163410000000    -0.176945   
N153     N      0.601800000000     0.508960000000     0.256290000000    -0.176199   
N154     N      0.665940000000     0.508960000000     0.256290000000    -0.176486   
N155     N      0.851980000000     0.008960000000     0.256290000000    -0.177934   
N156     N      0.916110000000     0.008960000000     0.256300000000    -0.178054   
N157     N      0.008960000000     0.916120000000     0.256300000000    -0.178156   
N158     N      0.008960000000     0.851970000000     0.256300000000    -0.177906   
N159     N      0.508960000000     0.601810000000     0.256300000000    -0.176134   
N160     N      0.508960000000     0.665950000000     0.256300000000    -0.176405   
N161     N      0.601970000000     0.508950000000     0.506290000000    -0.176619   
N162     N      0.666020000000     0.508950000000     0.506290000000    -0.176428   
N163     N      0.915970000000     0.008940000000     0.006290000000    -0.1796     
N164     N      0.851910000000     0.008950000000     0.006280000000    -0.179485   
N165     N      0.008970000000     0.915940000000     0.006290000000    -0.179555   
N166     N      0.008970000000     0.851880000000     0.006300000000    -0.179477   
N167     N      0.508960000000     0.601950000000     0.506290000000    -0.17656    
N168     N      0.508960000000     0.666010000000     0.506300000000    -0.176442   
N169     N      0.758960000000     0.008950000000     0.913400000000    -0.17667    
N170     N      0.758960000000     0.008960000000     0.849180000000    -0.176924   
N171     N      0.758960000000     0.008960000000     0.663390000000    -0.17694    
N172     N      0.758970000000     0.008960000000     0.599170000000    -0.17689    
N173     N      0.008960000000     0.758950000000     0.913420000000    -0.176683   
N174     N      0.008960000000     0.758960000000     0.849190000000    -0.176942   
N175     N      0.008960000000     0.758950000000     0.599180000000    -0.176854   
N176     N      0.008960000000     0.758960000000     0.663410000000    -0.176942   
N177     N      0.601800000000     0.508960000000     0.756290000000    -0.176187   
N178     N      0.665940000000     0.508960000000     0.756290000000    -0.176483   
N179     N      0.851980000000     0.008960000000     0.756290000000    -0.177925   
N180     N      0.916110000000     0.008960000000     0.756290000000    -0.178043   
N181     N      0.008960000000     0.916120000000     0.756300000000    -0.178143   
N182     N      0.008960000000     0.851970000000     0.756300000000    -0.177893   
N183     N      0.508960000000     0.601810000000     0.756300000000    -0.17617    
N184     N      0.508960000000     0.665950000000     0.756300000000    -0.176385   
N185     N      0.601970000000     0.508950000000     0.006290000000    -0.177645   
N186     N      0.666020000000     0.508950000000     0.006290000000    -0.177999   
N187     N      0.915970000000     0.008940000000     0.506290000000    -0.178609   
N188     N      0.851910000000     0.008950000000     0.506290000000    -0.177921   
N189     N      0.008970000000     0.915940000000     0.506290000000    -0.178535   
N190     N      0.008970000000     0.851880000000     0.506300000000    -0.177923   
N191     N      0.508960000000     0.601950000000     0.006290000000    -0.177592   
N192     N      0.508960000000     0.666010000000     0.006300000000    -0.178011   
O1       O      0.462090000000     0.508100000000     0.480600000000    -0.394585   
O2       O      0.055850000000     0.509790000000     0.480610000000    -0.394294   
O3       O      0.008160000000     0.462060000000     0.480600000000    -0.395677   
O4       O      0.509780000000     0.055830000000     0.480600000000    -0.39408    
O5       O      0.508150000000     0.055830000000     0.031980000000    -0.393287   
O6       O      0.009780000000     0.462060000000     0.031980000000    -0.394337   
O7       O      0.055850000000     0.008110000000     0.031980000000    -0.394327   
O8       O      0.462080000000     0.009780000000     0.031980000000    -0.394217   
O9       O      0.055560000000     0.014370000000     0.231210000000    -0.392532   
O10      O      0.462360000000     0.003550000000     0.231210000000    -0.393655   
O11      O      0.503550000000     0.055570000000     0.231210000000    -0.391958   
O12      O      0.014360000000     0.462360000000     0.231210000000    -0.392931   
O13      O      0.003550000000     0.462360000000     0.281380000000    -0.393832   
O14      O      0.514360000000     0.055560000000     0.281390000000    -0.392031   
O15      O      0.462360000000     0.514370000000     0.281380000000    -0.392583   
O16      O      0.055560000000     0.503550000000     0.281380000000    -0.392062   
O17      O      0.034590000000     0.261590000000     0.459740000000    -0.393453   
O18      O      0.034590000000     0.256300000000     0.052870000000    -0.393122   
O19      O      0.034540000000     0.212160000000     0.002850000000    -0.393593   
O20      O      0.034540000000     0.305720000000     0.509750000000    -0.392742   
O21      O      0.483380000000     0.305730000000     0.502850000000    -0.393847   
O22      O      0.483380000000     0.212160000000     0.009750000000    -0.394298   
O23      O      0.483340000000     0.261590000000     0.052860000000    -0.394397   
O24      O      0.483340000000     0.256300000000     0.459740000000    -0.394674   
O25      O      0.034600000000     0.256490000000     0.209730000000    -0.393679   
O26      O      0.034600000000     0.261440000000     0.302870000000    -0.393623   
O27      O      0.034560000000     0.212170000000     0.259510000000    -0.393223   
O28      O      0.034570000000     0.305760000000     0.253100000000    -0.393073   
O29      O      0.483360000000     0.305760000000     0.259510000000    -0.394321   
O30      O      0.483350000000     0.212170000000     0.253100000000    -0.394266   
O31      O      0.483320000000     0.256490000000     0.302870000000    -0.394791   
O32      O      0.483320000000     0.261440000000     0.209730000000    -0.394819   
O33      O      0.261200000000     0.483290000000     0.052870000000    -0.394711   
O34      O      0.256730000000     0.483290000000     0.459700000000    -0.394914   
O35      O      0.305770000000     0.483330000000     0.503140000000    -0.394183   
O36      O      0.212170000000     0.483330000000     0.009430000000    -0.394366   
O37      O      0.212170000000     0.034580000000     0.003140000000    -0.393527   
O38      O      0.305770000000     0.034580000000     0.509430000000    -0.3929     
O39      O      0.261200000000     0.034620000000     0.459700000000    -0.393588   
O40      O      0.256730000000     0.034620000000     0.052870000000    -0.39338    
O41      O      0.260990000000     0.483270000000     0.302880000000    -0.394961   
O42      O      0.256930000000     0.483270000000     0.209690000000    -0.394901   
O43      O      0.305770000000     0.483310000000     0.253410000000    -0.394444   
O44      O      0.212140000000     0.483310000000     0.259170000000    -0.394332   
O45      O      0.212140000000     0.034610000000     0.253400000000    -0.393147   
O46      O      0.305770000000     0.034600000000     0.259170000000    -0.393367   
O47      O      0.260990000000     0.034640000000     0.209690000000    -0.393824   
O48      O      0.256920000000     0.034640000000     0.302880000000    -0.393889   
O49      O      0.462090000000     0.508100000000     0.980600000000    -0.391814   
O50      O      0.055850000000     0.509790000000     0.980600000000    -0.39137    
O51      O      0.008160000000     0.462060000000     0.980600000000    -0.392906   
O52      O      0.509780000000     0.055830000000     0.980600000000    -0.391315   
O53      O      0.508150000000     0.055830000000     0.531980000000    -0.394081   
O54      O      0.009780000000     0.462060000000     0.531980000000    -0.395135   
O55      O      0.055850000000     0.008110000000     0.531980000000    -0.39518    
O56      O      0.462080000000     0.009780000000     0.531980000000    -0.395014   
O57      O      0.055560000000     0.014370000000     0.731210000000    -0.392509   
O58      O      0.462360000000     0.003550000000     0.731210000000    -0.393661   
O59      O      0.503550000000     0.055570000000     0.731210000000    -0.391994   
O60      O      0.014360000000     0.462360000000     0.731210000000    -0.392912   
O61      O      0.003550000000     0.462360000000     0.781380000000    -0.393783   
O62      O      0.514360000000     0.055560000000     0.781380000000    -0.39212    
O63      O      0.462350000000     0.514370000000     0.781380000000    -0.392511   
O64      O      0.055560000000     0.503550000000     0.781380000000    -0.39201    
O65      O      0.034590000000     0.261590000000     0.959740000000    -0.391198   
O66      O      0.034590000000     0.256300000000     0.552860000000    -0.393415   
O67      O      0.034540000000     0.212160000000     0.502850000000    -0.39286    
O68      O      0.034540000000     0.305720000000     0.009750000000    -0.393014   
O69      O      0.483380000000     0.305730000000     0.002850000000    -0.394612   
O70      O      0.483380000000     0.212160000000     0.509750000000    -0.394004   
O71      O      0.483340000000     0.261590000000     0.552860000000    -0.394666   
O72      O      0.483340000000     0.256300000000     0.959740000000    -0.392443   
O73      O      0.034600000000     0.256490000000     0.709730000000    -0.393633   
O74      O      0.034600000000     0.261440000000     0.802880000000    -0.393588   
O75      O      0.034560000000     0.212170000000     0.759510000000    -0.393184   
O76      O      0.034570000000     0.305760000000     0.753090000000    -0.393008   
O77      O      0.483360000000     0.305760000000     0.759500000000    -0.39431    
O78      O      0.483350000000     0.212170000000     0.753090000000    -0.394202   
O79      O      0.483320000000     0.256490000000     0.802880000000    -0.394768   
O80      O      0.483320000000     0.261440000000     0.709730000000    -0.394763   
O81      O      0.261200000000     0.483290000000     0.552870000000    -0.395027   
O82      O      0.256730000000     0.483290000000     0.959700000000    -0.392669   
O83      O      0.305770000000     0.483330000000     0.003140000000    -0.394927   
O84      O      0.212170000000     0.483330000000     0.509430000000    -0.394083   
O85      O      0.212170000000     0.034580000000     0.503140000000    -0.392788   
O86      O      0.305770000000     0.034580000000     0.009430000000    -0.393184   
O87      O      0.261200000000     0.034620000000     0.959700000000    -0.39135    
O88      O      0.256730000000     0.034620000000     0.552870000000    -0.393693   
O89      O      0.260990000000     0.483270000000     0.802880000000    -0.394922   
O90      O      0.256930000000     0.483270000000     0.709690000000    -0.39488    
O91      O      0.305770000000     0.483310000000     0.753410000000    -0.394418   
O92      O      0.212140000000     0.483310000000     0.759160000000    -0.394327   
O93      O      0.212140000000     0.034600000000     0.753400000000    -0.393282   
O94      O      0.305770000000     0.034600000000     0.759170000000    -0.393346   
O95      O      0.260990000000     0.034640000000     0.709690000000    -0.393809   
O96      O      0.256920000000     0.034640000000     0.802880000000    -0.393849   
O97      O      0.462090000000     0.008100000000     0.480600000000    -0.39557    
O98      O      0.055850000000     0.009790000000     0.480610000000    -0.394784   
O99      O      0.008160000000     0.962060000000     0.480600000000    -0.392395   
O100     O      0.509780000000     0.555830000000     0.480600000000    -0.394579   
O101     O      0.508150000000     0.555830000000     0.031980000000    -0.393792   
O102     O      0.009780000000     0.962060000000     0.031980000000    -0.391074   
O103     O      0.055850000000     0.508100000000     0.031980000000    -0.393337   
O104     O      0.462080000000     0.509780000000     0.031980000000    -0.393727   
O105     O      0.055560000000     0.514370000000     0.231210000000    -0.392201   
O106     O      0.462360000000     0.503550000000     0.231210000000    -0.392504   
O107     O      0.503550000000     0.555570000000     0.231210000000    -0.392477   
O108     O      0.014360000000     0.962360000000     0.231210000000    -0.389677   
O109     O      0.003550000000     0.962360000000     0.281380000000    -0.390592   
O110     O      0.514360000000     0.555570000000     0.281390000000    -0.392496   
O111     O      0.462360000000     0.014370000000     0.281380000000    -0.392952   
O112     O      0.055560000000     0.003550000000     0.281380000000    -0.393245   
O113     O      0.034590000000     0.761590000000     0.459740000000    -0.393435   
O114     O      0.034590000000     0.756300000000     0.052870000000    -0.393114   
O115     O      0.034540000000     0.712160000000     0.002850000000    -0.393599   
O116     O      0.034540000000     0.805720000000     0.509750000000    -0.392698   
O117     O      0.483380000000     0.805730000000     0.502850000000    -0.393798   
O118     O      0.483380000000     0.712160000000     0.009750000000    -0.394295   
O119     O      0.483340000000     0.761590000000     0.052860000000    -0.394386   
O120     O      0.483340000000     0.756300000000     0.459740000000    -0.394662   
O121     O      0.034600000000     0.756480000000     0.209730000000    -0.393639   
O122     O      0.034600000000     0.761440000000     0.302870000000    -0.393606   
O123     O      0.034560000000     0.712170000000     0.259510000000    -0.393213   
O124     O      0.034570000000     0.805760000000     0.253090000000    -0.393013   
O125     O      0.483360000000     0.805760000000     0.259510000000    -0.394284   
O126     O      0.483350000000     0.712170000000     0.253100000000    -0.394255   
O127     O      0.483320000000     0.756480000000     0.302870000000    -0.394758   
O128     O      0.483320000000     0.761440000000     0.209730000000    -0.394791   
O129     O      0.261200000000     0.983280000000     0.052870000000    -0.390541   
O130     O      0.256730000000     0.983280000000     0.459700000000    -0.390737   
O131     O      0.305770000000     0.983330000000     0.503140000000    -0.390137   
O132     O      0.212170000000     0.983330000000     0.009430000000    -0.390321   
O133     O      0.212170000000     0.534580000000     0.003140000000    -0.394716   
O134     O      0.305770000000     0.534580000000     0.509430000000    -0.394089   
O135     O      0.261200000000     0.534620000000     0.459700000000    -0.394813   
O136     O      0.256730000000     0.534620000000     0.052870000000    -0.394603   
O137     O      0.260990000000     0.983270000000     0.302880000000    -0.390948   
O138     O      0.256920000000     0.983270000000     0.209690000000    -0.390873   
O139     O      0.305770000000     0.983310000000     0.253410000000    -0.390425   
O140     O      0.212140000000     0.983310000000     0.259170000000    -0.390293   
O141     O      0.212140000000     0.534610000000     0.253400000000    -0.394338   
O142     O      0.305770000000     0.534600000000     0.259170000000    -0.394556   
O143     O      0.260990000000     0.534640000000     0.209690000000    -0.394997   
O144     O      0.256920000000     0.534640000000     0.302880000000    -0.395059   
O145     O      0.462090000000     0.008100000000     0.980600000000    -0.392799   
O146     O      0.055850000000     0.009790000000     0.980600000000    -0.391864   
O147     O      0.008160000000     0.962060000000     0.980600000000    -0.389645   
O148     O      0.509780000000     0.555830000000     0.980600000000    -0.391813   
O149     O      0.508150000000     0.555830000000     0.531980000000    -0.39458    
O150     O      0.009780000000     0.962060000000     0.531980000000    -0.391864   
O151     O      0.055850000000     0.508100000000     0.531980000000    -0.394192   
O152     O      0.462080000000     0.509780000000     0.531980000000    -0.394525   
O153     O      0.055560000000     0.514370000000     0.731210000000    -0.392177   
O154     O      0.462360000000     0.503550000000     0.731210000000    -0.392509   
O155     O      0.503550000000     0.555570000000     0.731210000000    -0.392513   
O156     O      0.014360000000     0.962360000000     0.731210000000    -0.38966    
O157     O      0.003550000000     0.962360000000     0.781380000000    -0.390546   
O158     O      0.514360000000     0.555570000000     0.781380000000    -0.392585   
O159     O      0.462350000000     0.014370000000     0.781380000000    -0.39288    
O160     O      0.055560000000     0.003550000000     0.781380000000    -0.393193   
O161     O      0.034590000000     0.761590000000     0.959740000000    -0.391183   
O162     O      0.034590000000     0.756300000000     0.552860000000    -0.393396   
O163     O      0.034540000000     0.712160000000     0.502850000000    -0.392861   
O164     O      0.034540000000     0.805720000000     0.009750000000    -0.392965   
O165     O      0.483380000000     0.805730000000     0.002850000000    -0.394562   
O166     O      0.483380000000     0.712160000000     0.509750000000    -0.394001   
O167     O      0.483340000000     0.761590000000     0.552860000000    -0.394655   
O168     O      0.483340000000     0.756300000000     0.959740000000    -0.392433   
O169     O      0.034600000000     0.756480000000     0.709730000000    -0.393603   
O170     O      0.034600000000     0.761440000000     0.802880000000    -0.393564   
O171     O      0.034560000000     0.712170000000     0.759510000000    -0.393176   
O172     O      0.034570000000     0.805760000000     0.753090000000    -0.392974   
O173     O      0.483360000000     0.805760000000     0.759500000000    -0.394271   
O174     O      0.483350000000     0.712170000000     0.753090000000    -0.394191   
O175     O      0.483320000000     0.756480000000     0.802880000000    -0.394735   
O176     O      0.483320000000     0.761440000000     0.709730000000    -0.394735   
O177     O      0.261200000000     0.983280000000     0.552870000000    -0.39085    
O178     O      0.256730000000     0.983280000000     0.959700000000    -0.388513   
O179     O      0.305770000000     0.983330000000     0.003140000000    -0.390884   
O180     O      0.212170000000     0.983330000000     0.509430000000    -0.390035   
O181     O      0.212170000000     0.534580000000     0.503140000000    -0.393977   
O182     O      0.305770000000     0.534580000000     0.009430000000    -0.394372   
O183     O      0.261200000000     0.534620000000     0.959700000000    -0.392568   
O184     O      0.256730000000     0.534620000000     0.552870000000    -0.394919   
O185     O      0.260990000000     0.983270000000     0.802880000000    -0.390917   
O186     O      0.256920000000     0.983270000000     0.709690000000    -0.390854   
O187     O      0.305770000000     0.983310000000     0.753410000000    -0.390406   
O188     O      0.212140000000     0.983310000000     0.759160000000    -0.390346   
O189     O      0.212140000000     0.534610000000     0.753400000000    -0.394317   
O190     O      0.305770000000     0.534600000000     0.759170000000    -0.394528   
O191     O      0.260990000000     0.534640000000     0.709690000000    -0.394979   
O192     O      0.256920000000     0.534640000000     0.802880000000    -0.395013   
O193     O      0.962090000000     0.508100000000     0.480600000000    -0.391307   
O194     O      0.555850000000     0.509790000000     0.480610000000    -0.394795   
O195     O      0.508160000000     0.462060000000     0.480600000000    -0.39468    
O196     O      0.009780000000     0.055830000000     0.480600000000    -0.394552   
O197     O      0.008150000000     0.055830000000     0.031980000000    -0.394284   
O198     O      0.509780000000     0.462060000000     0.031980000000    -0.393866   
O199     O      0.555850000000     0.008110000000     0.031980000000    -0.39488    
O200     O      0.962080000000     0.009780000000     0.031980000000    -0.390939   
O201     O      0.555560000000     0.014370000000     0.231210000000    -0.393014   
O202     O      0.962360000000     0.003550000000     0.231210000000    -0.390359   
O203     O      0.003550000000     0.055570000000     0.231210000000    -0.393133   
O204     O      0.514360000000     0.462360000000     0.231210000000    -0.3926     
O205     O      0.503550000000     0.462360000000     0.281380000000    -0.392657   
O206     O      0.014360000000     0.055560000000     0.281390000000    -0.392365   
O207     O      0.962360000000     0.514370000000     0.281380000000    -0.389294   
O208     O      0.555560000000     0.503550000000     0.281380000000    -0.392546   
O209     O      0.534590000000     0.261590000000     0.459740000000    -0.394595   
O210     O      0.534590000000     0.256300000000     0.052870000000    -0.394289   
O211     O      0.534540000000     0.212160000000     0.002850000000    -0.394781   
O212     O      0.534540000000     0.305720000000     0.509750000000    -0.39391    
O213     O      0.983380000000     0.305730000000     0.502850000000    -0.389823   
O214     O      0.983380000000     0.212160000000     0.009750000000    -0.390259   
O215     O      0.983340000000     0.261590000000     0.052860000000    -0.390396   
O216     O      0.983340000000     0.256300000000     0.459740000000    -0.390665   
O217     O      0.534600000000     0.256490000000     0.209730000000    -0.394834   
O218     O      0.534600000000     0.261440000000     0.302870000000    -0.39479    
O219     O      0.534560000000     0.212170000000     0.259510000000    -0.394356   
O220     O      0.534570000000     0.305760000000     0.253090000000    -0.394229   
O221     O      0.983360000000     0.305760000000     0.259510000000    -0.390302   
O222     O      0.983360000000     0.212170000000     0.253090000000    -0.390367   
O223     O      0.983320000000     0.256490000000     0.302870000000    -0.390788   
O224     O      0.983320000000     0.261440000000     0.209730000000    -0.390802   
O225     O      0.761210000000     0.483290000000     0.052870000000    -0.394669   
O226     O      0.756730000000     0.483290000000     0.459700000000    -0.394891   
O227     O      0.805770000000     0.483330000000     0.503140000000    -0.394124   
O228     O      0.712170000000     0.483330000000     0.009430000000    -0.394373   
O229     O      0.712170000000     0.034580000000     0.003140000000    -0.393529   
O230     O      0.805770000000     0.034580000000     0.509430000000    -0.392851   
O231     O      0.761200000000     0.034620000000     0.459700000000    -0.393577   
O232     O      0.756730000000     0.034620000000     0.052870000000    -0.393366   
O233     O      0.760990000000     0.483270000000     0.302880000000    -0.394941   
O234     O      0.756930000000     0.483270000000     0.209690000000    -0.394886   
O235     O      0.805770000000     0.483310000000     0.253410000000    -0.394396   
O236     O      0.712140000000     0.483310000000     0.259170000000    -0.394303   
O237     O      0.712150000000     0.034610000000     0.253400000000    -0.393172   
O238     O      0.805770000000     0.034600000000     0.259170000000    -0.393339   
O239     O      0.760990000000     0.034640000000     0.209690000000    -0.39382    
O240     O      0.756920000000     0.034640000000     0.302880000000    -0.393897   
O241     O      0.962090000000     0.508100000000     0.980600000000    -0.388552   
O242     O      0.555850000000     0.509790000000     0.980610000000    -0.392021   
O243     O      0.508160000000     0.462060000000     0.980600000000    -0.391908   
O244     O      0.009780000000     0.055830000000     0.980600000000    -0.391787   
O245     O      0.008150000000     0.055830000000     0.531980000000    -0.395081   
O246     O      0.509780000000     0.462060000000     0.531980000000    -0.394674   
O247     O      0.555850000000     0.008110000000     0.531980000000    -0.395677   
O248     O      0.962080000000     0.009780000000     0.531980000000    -0.391733   
O249     O      0.555560000000     0.014370000000     0.731210000000    -0.39299    
O250     O      0.962360000000     0.003550000000     0.731210000000    -0.390334   
O251     O      0.003550000000     0.055570000000     0.731210000000    -0.393166   
O252     O      0.514360000000     0.462360000000     0.731210000000    -0.392581   
O253     O      0.503550000000     0.462360000000     0.781380000000    -0.392597   
O254     O      0.014360000000     0.055560000000     0.781380000000    -0.392464   
O255     O      0.962360000000     0.514370000000     0.781380000000    -0.389251   
O256     O      0.555560000000     0.503550000000     0.781380000000    -0.392474   
O257     O      0.534590000000     0.261590000000     0.959740000000    -0.392351   
O258     O      0.534590000000     0.256300000000     0.552860000000    -0.394608   
O259     O      0.534540000000     0.212160000000     0.502850000000    -0.394025   
O260     O      0.534540000000     0.305720000000     0.009750000000    -0.394197   
O261     O      0.983380000000     0.305730000000     0.002850000000    -0.390585   
O262     O      0.983380000000     0.212160000000     0.509750000000    -0.389974   
O263     O      0.983330000000     0.261590000000     0.552860000000    -0.390513   
O264     O      0.983340000000     0.256300000000     0.959740000000    -0.388446   
O265     O      0.534600000000     0.256490000000     0.709730000000    -0.394792   
O266     O      0.534600000000     0.261440000000     0.802880000000    -0.394753   
O267     O      0.534560000000     0.212170000000     0.759510000000    -0.394311   
O268     O      0.534570000000     0.305760000000     0.753090000000    -0.394198   
O269     O      0.983360000000     0.305760000000     0.759510000000    -0.39026    
O270     O      0.983360000000     0.212170000000     0.753090000000    -0.39033    
O271     O      0.983320000000     0.256490000000     0.802880000000    -0.390752   
O272     O      0.983320000000     0.261440000000     0.709730000000    -0.390763   
O273     O      0.761210000000     0.483290000000     0.552870000000    -0.394984   
O274     O      0.756730000000     0.483290000000     0.959700000000    -0.392649   
O275     O      0.805770000000     0.483330000000     0.003140000000    -0.394868   
O276     O      0.712170000000     0.483330000000     0.509430000000    -0.39409    
O277     O      0.712170000000     0.034580000000     0.503140000000    -0.39279    
O278     O      0.805770000000     0.034580000000     0.009430000000    -0.393135   
O279     O      0.761200000000     0.034620000000     0.959700000000    -0.391341   
O280     O      0.756730000000     0.034620000000     0.552870000000    -0.393679   
O281     O      0.760990000000     0.483270000000     0.802880000000    -0.394903   
O282     O      0.756930000000     0.483270000000     0.709690000000    -0.394865   
O283     O      0.805770000000     0.483310000000     0.753410000000    -0.39437    
O284     O      0.712140000000     0.483310000000     0.759160000000    -0.394299   
O285     O      0.712150000000     0.034600000000     0.753400000000    -0.393318   
O286     O      0.805770000000     0.034600000000     0.759170000000    -0.393318   
O287     O      0.760990000000     0.034640000000     0.709690000000    -0.393809   
O288     O      0.756920000000     0.034640000000     0.802880000000    -0.393852   
O289     O      0.962090000000     0.008100000000     0.480600000000    -0.392285   
O290     O      0.555850000000     0.009790000000     0.480610000000    -0.395282   
O291     O      0.508160000000     0.962060000000     0.480600000000    -0.391403   
O292     O      0.009780000000     0.555830000000     0.480600000000    -0.395054   
O293     O      0.008150000000     0.555830000000     0.031980000000    -0.394789   
O294     O      0.509780000000     0.962060000000     0.031980000000    -0.390608   
O295     O      0.555850000000     0.508100000000     0.031980000000    -0.393891   
O296     O      0.962080000000     0.509780000000     0.031980000000    -0.390454   
O297     O      0.555560000000     0.514370000000     0.231210000000    -0.392683   
O298     O      0.962360000000     0.503550000000     0.231210000000    -0.389216   
O299     O      0.003550000000     0.555570000000     0.231210000000    -0.393651   
O300     O      0.514360000000     0.962360000000     0.231210000000    -0.38935    
O301     O      0.503550000000     0.962360000000     0.281380000000    -0.389423   
O302     O      0.014360000000     0.555570000000     0.281390000000    -0.39283    
O303     O      0.962360000000     0.014370000000     0.281380000000    -0.389658   
O304     O      0.555560000000     0.003550000000     0.281380000000    -0.393727   
O305     O      0.534590000000     0.761590000000     0.459740000000    -0.394573   
O306     O      0.534590000000     0.756300000000     0.052870000000    -0.394266   
O307     O      0.534540000000     0.712160000000     0.002850000000    -0.394779   
O308     O      0.534540000000     0.805720000000     0.509750000000    -0.393862   
O309     O      0.983380000000     0.805730000000     0.502850000000    -0.38979    
O310     O      0.983380000000     0.712160000000     0.009750000000    -0.39027    
O311     O      0.983340000000     0.761590000000     0.052860000000    -0.390388   
O312     O      0.983340000000     0.756300000000     0.459740000000    -0.390666   
O313     O      0.534600000000     0.756480000000     0.209730000000    -0.394801   
O314     O      0.534600000000     0.761440000000     0.302870000000    -0.394762   
O315     O      0.534560000000     0.712170000000     0.259510000000    -0.394345   
O316     O      0.534570000000     0.805760000000     0.253090000000    -0.394193   
O317     O      0.983360000000     0.805760000000     0.259510000000    -0.390271   
O318     O      0.983360000000     0.712170000000     0.253090000000    -0.390366   
O319     O      0.983320000000     0.756480000000     0.302870000000    -0.390769   
O320     O      0.983320000000     0.761440000000     0.209730000000    -0.390783   
O321     O      0.761210000000     0.983280000000     0.052870000000    -0.390512   
O322     O      0.756730000000     0.983280000000     0.459700000000    -0.390727   
O323     O      0.805770000000     0.983330000000     0.503140000000    -0.390092   
O324     O      0.712170000000     0.983330000000     0.009430000000    -0.390338   
O325     O      0.712170000000     0.534580000000     0.003140000000    -0.394715   
O326     O      0.805770000000     0.534580000000     0.509430000000    -0.394036   
O327     O      0.761200000000     0.534620000000     0.459700000000    -0.394799   
O328     O      0.756730000000     0.534620000000     0.052870000000    -0.394586   
O329     O      0.760990000000     0.983270000000     0.302880000000    -0.390946   
O330     O      0.756930000000     0.983270000000     0.209690000000    -0.390885   
O331     O      0.805770000000     0.983310000000     0.253410000000    -0.390384   
O332     O      0.712140000000     0.983310000000     0.259170000000    -0.390295   
O333     O      0.712150000000     0.534610000000     0.253400000000    -0.394367   
O334     O      0.805770000000     0.534600000000     0.259170000000    -0.394527   
O335     O      0.760990000000     0.534640000000     0.209690000000    -0.394989   
O336     O      0.756920000000     0.534640000000     0.302880000000    -0.395058   
O337     O      0.962090000000     0.008100000000     0.980600000000    -0.389529   
O338     O      0.555850000000     0.009790000000     0.980610000000    -0.392515   
O339     O      0.508160000000     0.962060000000     0.980600000000    -0.388655   
O340     O      0.009780000000     0.555830000000     0.980600000000    -0.392285   
O341     O      0.008150000000     0.555830000000     0.531980000000    -0.395588   
O342     O      0.509780000000     0.962060000000     0.531980000000    -0.391397   
O343     O      0.555850000000     0.508110000000     0.531980000000    -0.394695   
O344     O      0.962080000000     0.509780000000     0.531980000000    -0.391247   
O345     O      0.555560000000     0.514370000000     0.731210000000    -0.392658   
O346     O      0.962360000000     0.503550000000     0.731210000000    -0.38919    
O347     O      0.003550000000     0.555570000000     0.731210000000    -0.393685   
O348     O      0.514360000000     0.962360000000     0.731210000000    -0.389333   
O349     O      0.503550000000     0.962360000000     0.781380000000    -0.389367   
O350     O      0.014360000000     0.555570000000     0.781380000000    -0.392929   
O351     O      0.962360000000     0.014370000000     0.781380000000    -0.389615   
O352     O      0.555560000000     0.003550000000     0.781380000000    -0.393655   
O353     O      0.534590000000     0.761590000000     0.959740000000    -0.392332   
O354     O      0.534590000000     0.756300000000     0.552860000000    -0.394585   
O355     O      0.534540000000     0.712160000000     0.502850000000    -0.394022   
O356     O      0.534540000000     0.805720000000     0.009750000000    -0.394149   
O357     O      0.983380000000     0.805730000000     0.002850000000    -0.390547   
O358     O      0.983380000000     0.712160000000     0.509750000000    -0.389981   
O359     O      0.983330000000     0.761590000000     0.552860000000    -0.390514   
O360     O      0.983340000000     0.756300000000     0.959740000000    -0.388448   
O361     O      0.534600000000     0.756480000000     0.709730000000    -0.394759   
O362     O      0.534600000000     0.761440000000     0.802880000000    -0.394725   
O363     O      0.534560000000     0.712170000000     0.759510000000    -0.3943     
O364     O      0.534570000000     0.805760000000     0.753090000000    -0.394161   
O365     O      0.983360000000     0.805760000000     0.759510000000    -0.390237   
O366     O      0.983360000000     0.712170000000     0.753090000000    -0.390329   
O367     O      0.983320000000     0.756480000000     0.802880000000    -0.390731   
O368     O      0.983320000000     0.761440000000     0.709730000000    -0.390748   
O369     O      0.761210000000     0.983280000000     0.552870000000    -0.390821   
O370     O      0.756730000000     0.983280000000     0.959700000000    -0.388505   
O371     O      0.805770000000     0.983330000000     0.003140000000    -0.39084    
O372     O      0.712170000000     0.983330000000     0.509430000000    -0.390051   
O373     O      0.712170000000     0.534580000000     0.503140000000    -0.393975   
O374     O      0.805770000000     0.534580000000     0.009430000000    -0.394319   
O375     O      0.761200000000     0.534620000000     0.959700000000    -0.392556   
O376     O      0.756730000000     0.534620000000     0.552870000000    -0.394901   
O377     O      0.760990000000     0.983270000000     0.802880000000    -0.390912   
O378     O      0.756930000000     0.983270000000     0.709690000000    -0.390869   
O379     O      0.805770000000     0.983310000000     0.753410000000    -0.390364   
O380     O      0.712140000000     0.983310000000     0.759160000000    -0.390338   
O381     O      0.712150000000     0.534610000000     0.753400000000    -0.394346   
O382     O      0.805770000000     0.534600000000     0.759170000000    -0.394499   
O383     O      0.760990000000     0.534640000000     0.709690000000    -0.394971   
O384     O      0.756920000000     0.534640000000     0.802880000000    -0.395013   


