data_structure

_audit_creation_method RASPA-1.0
_audit_creation_date 2023-5-19
_audit_author_name 'Poobodin Mano'

_cell_length_a    43.281
_cell_length_b    43.2819
_cell_length_c    43.3033
_cell_angle_alpha 90
_cell_angle_beta  90
_cell_angle_gamma 90
_cell_volume      81119.4

_symmetry_cell_setting          triclinic
_symmetry_space_group_name_Hall 'P 1'
_symmetry_space_group_name_H-M  'P 1'
_symmetry_Int_Tables_number     1

_symmetry_equiv_pos_as_xyz 'x,y,z'

loop_
_atom_site_label
_atom_site_type_symbol
_atom_site_fract_x
_atom_site_fract_y
_atom_site_fract_z
_atom_site_charge
C1       C      0.489830000000     0.055510000000     0.240300000000     0.40589    
C2       C      0.996710000000     0.433040000000     0.239690000000     0.399711   
C3       C      0.432090000000     0.990440000000     0.238810000000     0.405657   
C4       C      0.054490000000     0.497800000000     0.241140000000     0.406043   
C5       C      0.990820000000     0.182810000000     0.243390000000     0.407474   
C6       C      0.995880000000     0.305720000000     0.242250000000     0.406197   
C7       C      0.992950000000     0.243250000000     0.180900000000     0.400973   
C8       C      0.993720000000     0.244840000000     0.303980000000     0.409456   
C9       C      0.241230000000     0.990860000000     0.178960000000     0.404828   
C10      C      0.246130000000     0.994440000000     0.301730000000     0.413951   
C11      C      0.304690000000     0.988970000000     0.239170000000     0.408406   
C12      C      0.181890000000     0.995640000000     0.243050000000     0.409146   
C13      C      0.243610000000     0.054730000000     0.992260000000     0.405952   
C14      C      0.246980000000     0.431850000000     0.487900000000     0.412241   
C15      C      0.244490000000     0.991090000000     0.051770000000     0.407102   
C16      C      0.245590000000     0.495360000000     0.428960000000     0.415485   
C17      C      0.992370000000     0.240590000000     0.053600000000     0.416047   
C18      C      0.493980000000     0.245730000000     0.431150000000     0.411575   
C19      C      0.053850000000     0.244600000000     0.993870000000     0.41359    
C20      C      0.431180000000     0.241530000000     0.491950000000     0.410254   
C21      C      0.241820000000     0.182080000000     0.991470000000     0.403755   
C22      C      0.244470000000     0.304640000000     0.989830000000     0.403053   
C23      C      0.181240000000     0.245090000000     0.991530000000     0.403065   
C24      C      0.303900000000     0.241310000000     0.990300000000     0.404057   
C25      C      0.351930000000     0.256800000000     0.969030000000     0.0364041  
C26      C      0.350790000000     0.223690000000     0.012310000000     0.0654442  
C27      C      0.384070000000     0.258060000000     0.970880000000     0.0309576  
C28      C      0.383230000000     0.223140000000     0.013160000000    -0.00341677 
C29      C      0.398090000000     0.205740000000     0.038850000000     0.303771   
C30      C      0.133100000000     0.228660000000     0.471390000000     0.0404842  
C31      C      0.134450000000     0.262750000000     0.013870000000     0.0645229  
C32      C      0.101010000000     0.227380000000     0.473470000000     0.0305423  
C33      C      0.101960000000     0.263420000000     0.014780000000    -0.00240401 
C34      C      0.087160000000     0.281800000000     0.039830000000     0.306403   
C35      C      0.262100000000     0.352450000000     0.010340000000     0.0416994  
C36      C      0.230350000000     0.351790000000     0.466040000000     0.0617729  
C37      C      0.264260000000     0.384600000000     0.008280000000     0.0354626  
C38      C      0.230820000000     0.384170000000     0.464850000000    -0.00663454 
C39      C      0.215270000000     0.399340000000     0.438220000000     0.304589   
C40      C      0.217740000000     0.102390000000     0.002150000000     0.0417571  
C41      C      0.268800000000     0.102480000000     0.983020000000     0.0608984  
C42      C      0.218050000000     0.134680000000     0.002830000000     0.036321   
C43      C      0.268650000000     0.134840000000     0.981720000000    -0.00450591 
C44      C      0.297870000000     0.150500000000     0.472560000000     0.296053   
C45      C      0.223190000000     0.481250000000     0.381140000000     0.0456089  
C46      C      0.268910000000     0.010900000000     0.381920000000     0.0658797  
C47      C      0.224860000000     0.479480000000     0.349080000000     0.0323195  
C48      C      0.269090000000     0.011950000000     0.349410000000    -0.00152083 
C49      C      0.294540000000     0.029530000000     0.334210000000     0.302327   
C50      C      0.263750000000     0.008080000000     0.100040000000     0.0427897  
C51      C      0.222900000000     0.972030000000     0.098210000000     0.061325   
C52      C      0.261310000000     0.009180000000     0.132130000000     0.0351282  
C53      C      0.221960000000     0.971020000000     0.130620000000    -0.00975264 
C54      C      0.197970000000     0.451160000000     0.145050000000     0.305764   
C55      C      0.467140000000     0.242680000000     0.352080000000     0.0392801  
C56      C      0.021360000000     0.248510000000     0.351350000000     0.0646382  
C57      C      0.467600000000     0.242620000000     0.384270000000     0.0341835  
C58      C      0.021880000000     0.250350000000     0.383760000000    -0.00226557 
C59      C      0.052220000000     0.255240000000     0.399290000000     0.29482    
C60      C      0.969830000000     0.256110000000     0.132960000000     0.0386614  
C61      C      0.015580000000     0.226510000000     0.133970000000     0.0644333  
C62      C      0.970590000000     0.256100000000     0.100770000000     0.0358196  
C63      C      0.014710000000     0.223620000000     0.101670000000    -0.0013085  
C64      C      0.539750000000     0.205480000000     0.086870000000     0.303122   
C65      C      0.102230000000     0.478980000000     0.222880000000     0.0425651  
C66      C      0.101600000000     0.016820000000     0.262070000000     0.0652872  
C67      C      0.134210000000     0.477190000000     0.225160000000     0.0322536  
C68      C      0.134200000000     0.017040000000     0.262740000000    -0.00357475 
C69      C      0.149620000000     0.036640000000     0.286420000000     0.303847   
C70      C      0.384060000000     0.006560000000     0.218330000000     0.0427622  
C71      C      0.385320000000     0.469590000000     0.258310000000     0.0598779  
C72      C      0.351930000000     0.007000000000     0.219760000000     0.0332621  
C73      C      0.352820000000     0.467960000000     0.258260000000    -0.00563056 
C74      C      0.338100000000     0.446670000000     0.280940000000     0.303745   
C75      C      0.479880000000     0.384960000000     0.219700000000     0.0392842  
C76      C      0.015580000000     0.386210000000     0.260850000000     0.0651932  
C77      C      0.478520000000     0.352840000000     0.221870000000     0.0328612  
C78      C      0.016190000000     0.353730000000     0.261680000000    -0.0034928  
C79      C      0.035300000000     0.338840000000     0.286030000000     0.304005   
C80      C      0.006650000000     0.103690000000     0.220570000000     0.0438227  
C81      C      0.471280000000     0.102290000000     0.262010000000     0.0613266  
C82      C      0.008030000000     0.135770000000     0.222840000000     0.037008   
C83      C      0.470800000000     0.134780000000     0.263070000000    -0.00592696 
C84      C      0.452120000000     0.149660000000     0.287790000000     0.303238   
C85      C      0.489830000000     0.055510000000     0.740300000000     0.405896   
C86      C      0.996710000000     0.433040000000     0.739690000000     0.399711   
C87      C      0.432090000000     0.990440000000     0.738810000000     0.405663   
C88      C      0.054490000000     0.497800000000     0.741140000000     0.406051   
C89      C      0.990820000000     0.182810000000     0.743380000000     0.407442   
C90      C      0.995880000000     0.305720000000     0.742250000000     0.406175   
C91      C      0.992950000000     0.243250000000     0.680900000000     0.400935   
C92      C      0.993720000000     0.244840000000     0.803980000000     0.409523   
C93      C      0.241230000000     0.990860000000     0.678960000000     0.404797   
C94      C      0.246130000000     0.994440000000     0.801730000000     0.413949   
C95      C      0.304690000000     0.988970000000     0.739170000000     0.408392   
C96      C      0.181890000000     0.995640000000     0.743050000000     0.409134   
C97      C      0.243610000000     0.054730000000     0.492260000000     0.406418   
C98      C      0.246980000000     0.431850000000     0.987900000000     0.411811   
C99      C      0.244490000000     0.991090000000     0.551770000000     0.407485   
C100     C      0.245590000000     0.495360000000     0.928960000000     0.415306   
C101     C      0.992370000000     0.240590000000     0.553600000000     0.416557   
C102     C      0.493980000000     0.245730000000     0.931140000000     0.411332   
C103     C      0.053850000000     0.244600000000     0.493870000000     0.414123   
C104     C      0.431180000000     0.241530000000     0.991950000000     0.409735   
C105     C      0.241820000000     0.182080000000     0.491460000000     0.407946   
C106     C      0.244470000000     0.304640000000     0.489830000000     0.407196   
C107     C      0.181240000000     0.245090000000     0.491530000000     0.406991   
C108     C      0.303900000000     0.241310000000     0.490300000000     0.408131   
C109     C      0.351930000000     0.256800000000     0.469020000000     0.0369451  
C110     C      0.350790000000     0.223690000000     0.512310000000     0.0629007  
C111     C      0.384070000000     0.258060000000     0.470880000000     0.0314341  
C112     C      0.383230000000     0.223140000000     0.513160000000    -0.00612973 
C113     C      0.398090000000     0.205740000000     0.538850000000     0.303945   
C114     C      0.133100000000     0.228660000000     0.971390000000     0.039832   
C115     C      0.134450000000     0.262750000000     0.513870000000     0.0621356  
C116     C      0.101010000000     0.227380000000     0.973470000000     0.030065   
C117     C      0.101960000000     0.263420000000     0.514790000000    -0.00516065 
C118     C      0.087160000000     0.281800000000     0.539830000000     0.306627   
C119     C      0.262100000000     0.352450000000     0.510340000000     0.0392667  
C120     C      0.230350000000     0.351790000000     0.966040000000     0.0610682  
C121     C      0.264260000000     0.384600000000     0.508280000000     0.0325558  
C122     C      0.230820000000     0.384170000000     0.964860000000    -0.00690015 
C123     C      0.215270000000     0.399340000000     0.938220000000     0.304475   
C124     C      0.217740000000     0.102390000000     0.502150000000     0.0388454  
C125     C      0.268800000000     0.102480000000     0.483020000000     0.0613462  
C126     C      0.218050000000     0.134680000000     0.502830000000     0.033835   
C127     C      0.268650000000     0.134840000000     0.481720000000    -0.00377416 
C128     C      0.297870000000     0.150500000000     0.972560000000     0.296107   
C129     C      0.223190000000     0.481250000000     0.881140000000     0.0455679  
C130     C      0.268910000000     0.010900000000     0.881920000000     0.0658413  
C131     C      0.224860000000     0.479480000000     0.849080000000     0.0323069  
C132     C      0.269090000000     0.011950000000     0.849410000000    -0.00154322 
C133     C      0.294540000000     0.029530000000     0.834210000000     0.302326   
C134     C      0.263750000000     0.008080000000     0.600040000000     0.0426682  
C135     C      0.222900000000     0.972030000000     0.598210000000     0.0611969  
C136     C      0.261310000000     0.009180000000     0.632130000000     0.03502    
C137     C      0.221960000000     0.971020000000     0.630620000000    -0.00982385 
C138     C      0.197970000000     0.451160000000     0.645050000000     0.305591   
C139     C      0.467140000000     0.242680000000     0.852080000000     0.0392678  
C140     C      0.021360000000     0.248510000000     0.851350000000     0.0646273  
C141     C      0.467600000000     0.242620000000     0.884270000000     0.0341361  
C142     C      0.021880000000     0.250350000000     0.883760000000    -0.00231378 
C143     C      0.052220000000     0.255240000000     0.899290000000     0.294803   
C144     C      0.969830000000     0.256110000000     0.632960000000     0.0385768  
C145     C      0.015580000000     0.226510000000     0.633970000000     0.0644078  
C146     C      0.970590000000     0.256100000000     0.600770000000     0.0357663  
C147     C      0.014710000000     0.223620000000     0.601670000000    -0.00136854 
C148     C      0.539750000000     0.205480000000     0.586870000000     0.302993   
C149     C      0.102230000000     0.478980000000     0.722880000000     0.042537   
C150     C      0.101600000000     0.016820000000     0.762070000000     0.065291   
C151     C      0.134210000000     0.477190000000     0.725160000000     0.0322244  
C152     C      0.134200000000     0.017040000000     0.762740000000    -0.00360092 
C153     C      0.149620000000     0.036640000000     0.786420000000     0.30384    
C154     C      0.384060000000     0.006560000000     0.718330000000     0.0426627  
C155     C      0.385320000000     0.469590000000     0.758310000000     0.0598605  
C156     C      0.351930000000     0.007000000000     0.719760000000     0.0332671  
C157     C      0.352820000000     0.467960000000     0.758250000000    -0.00556121 
C158     C      0.338100000000     0.446670000000     0.780940000000     0.303644   
C159     C      0.479880000000     0.384960000000     0.719700000000     0.0392751  
C160     C      0.015580000000     0.386210000000     0.760850000000     0.0651677  
C161     C      0.478520000000     0.352840000000     0.721870000000     0.0327711  
C162     C      0.016190000000     0.353730000000     0.761680000000    -0.00346719 
C163     C      0.035300000000     0.338840000000     0.786030000000     0.303987   
C164     C      0.006650000000     0.103690000000     0.720570000000     0.0438099  
C165     C      0.471280000000     0.102290000000     0.762010000000     0.061322   
C166     C      0.008030000000     0.135770000000     0.722840000000     0.0369683  
C167     C      0.470800000000     0.134780000000     0.763070000000    -0.00596854 
C168     C      0.452120000000     0.149660000000     0.787790000000     0.303386   
C169     C      0.489830000000     0.555510000000     0.240300000000     0.406613   
C170     C      0.996710000000     0.933040000000     0.239690000000     0.399327   
C171     C      0.432090000000     0.490440000000     0.238810000000     0.406353   
C172     C      0.054490000000     0.997800000000     0.241140000000     0.39966    
C173     C      0.990820000000     0.682810000000     0.243390000000     0.407512   
C174     C      0.995880000000     0.805720000000     0.242250000000     0.406188   
C175     C      0.992950000000     0.743250000000     0.180900000000     0.400953   
C176     C      0.993720000000     0.744840000000     0.303980000000     0.409441   
C177     C      0.241230000000     0.490860000000     0.178960000000     0.410454   
C178     C      0.246130000000     0.494440000000     0.301730000000     0.419777   
C179     C      0.304690000000     0.488970000000     0.239170000000     0.414211   
C180     C      0.181890000000     0.495640000000     0.243050000000     0.41483    
C181     C      0.243610000000     0.554730000000     0.992260000000     0.406452   
C182     C      0.246980000000     0.931850000000     0.487900000000     0.412121   
C183     C      0.244490000000     0.491090000000     0.051770000000     0.407712   
C184     C      0.245590000000     0.995360000000     0.428960000000     0.414833   
C185     C      0.992370000000     0.740590000000     0.053600000000     0.416055   
C186     C      0.493980000000     0.745730000000     0.431150000000     0.411591   
C187     C      0.053850000000     0.744600000000     0.993870000000     0.413611   
C188     C      0.431180000000     0.741530000000     0.491950000000     0.41027    
C189     C      0.241820000000     0.682080000000     0.991470000000     0.403647   
C190     C      0.244470000000     0.804630000000     0.989830000000     0.403127   
C191     C      0.181240000000     0.745090000000     0.991530000000     0.40311    
C192     C      0.303900000000     0.741310000000     0.990300000000     0.404057   
C193     C      0.351930000000     0.756790000000     0.969030000000     0.0364533  
C194     C      0.350790000000     0.723690000000     0.012310000000     0.0654441  
C195     C      0.384070000000     0.758060000000     0.970880000000     0.0308862  
C196     C      0.383230000000     0.723140000000     0.013160000000    -0.00346567 
C197     C      0.398090000000     0.705740000000     0.038850000000     0.303734   
C198     C      0.133100000000     0.728670000000     0.471390000000     0.0405274  
C199     C      0.134450000000     0.762750000000     0.013870000000     0.0645212  
C200     C      0.101010000000     0.727380000000     0.473470000000     0.0304616  
C201     C      0.101960000000     0.763420000000     0.014780000000    -0.00243706 
C202     C      0.087160000000     0.781800000000     0.039830000000     0.306408   
C203     C      0.262100000000     0.852450000000     0.010340000000     0.0416526  
C204     C      0.230350000000     0.851800000000     0.466040000000     0.0617131  
C205     C      0.264260000000     0.884600000000     0.008280000000     0.035404   
C206     C      0.230820000000     0.884170000000     0.464850000000    -0.00670751 
C207     C      0.215270000000     0.899330000000     0.438220000000     0.304417   
C208     C      0.217740000000     0.602390000000     0.002150000000     0.0415794  
C209     C      0.268800000000     0.602480000000     0.983020000000     0.0607693  
C210     C      0.218050000000     0.634680000000     0.002830000000     0.0361679  
C211     C      0.268650000000     0.634840000000     0.981720000000    -0.00465755 
C212     C      0.297870000000     0.650510000000     0.472560000000     0.296147   
C213     C      0.223190000000     0.981250000000     0.381140000000     0.0449464  
C214     C      0.268910000000     0.510900000000     0.381920000000     0.0619599  
C215     C      0.224860000000     0.979470000000     0.349080000000     0.0312418  
C216     C      0.269090000000     0.511950000000     0.349410000000    -0.00466728 
C217     C      0.294540000000     0.529530000000     0.334210000000     0.302644   
C218     C      0.263750000000     0.508080000000     0.100040000000     0.0389254  
C219     C      0.222900000000     0.472030000000     0.098210000000     0.0618406  
C220     C      0.261310000000     0.509180000000     0.132130000000     0.0317604  
C221     C      0.221960000000     0.471020000000     0.130620000000    -0.00890217 
C222     C      0.197970000000     0.951160000000     0.145050000000     0.305866   
C223     C      0.467140000000     0.742680000000     0.352080000000     0.0392518  
C224     C      0.021360000000     0.748510000000     0.351350000000     0.0646188  
C225     C      0.467600000000     0.742620000000     0.384270000000     0.0341346  
C226     C      0.021880000000     0.750350000000     0.383760000000    -0.00231509 
C227     C      0.052220000000     0.755240000000     0.399290000000     0.294818   
C228     C      0.969830000000     0.756110000000     0.132960000000     0.0386933  
C229     C      0.015580000000     0.726510000000     0.133970000000     0.0644114  
C230     C      0.970590000000     0.756110000000     0.100770000000     0.0356703  
C231     C      0.014710000000     0.723620000000     0.101670000000    -0.00133211 
C232     C      0.539750000000     0.705480000000     0.086870000000     0.303094   
C233     C      0.102230000000     0.978980000000     0.222880000000     0.0417399  
C234     C      0.101600000000     0.516820000000     0.262070000000     0.0618901  
C235     C      0.134210000000     0.977190000000     0.225160000000     0.0314481  
C236     C      0.134200000000     0.517040000000     0.262740000000    -0.00683513 
C237     C      0.149620000000     0.536640000000     0.286420000000     0.304251   
C238     C      0.384060000000     0.506560000000     0.218330000000     0.0388303  
C239     C      0.385320000000     0.969600000000     0.258310000000     0.0593958  
C240     C      0.351930000000     0.507000000000     0.219760000000     0.0300184  
C241     C      0.352820000000     0.967950000000     0.258260000000    -0.00681284 
C242     C      0.338100000000     0.946670000000     0.280940000000     0.303993   
C243     C      0.479880000000     0.884960000000     0.219700000000     0.0392267  
C244     C      0.015580000000     0.886210000000     0.260850000000     0.0651437  
C245     C      0.478520000000     0.852840000000     0.221870000000     0.032827   
C246     C      0.016190000000     0.853730000000     0.261680000000    -0.00354253 
C247     C      0.035300000000     0.838840000000     0.286030000000     0.304008   
C248     C      0.006650000000     0.603690000000     0.220570000000     0.0437101  
C249     C      0.471280000000     0.602290000000     0.262010000000     0.0612247  
C250     C      0.008030000000     0.635770000000     0.222840000000     0.0368735  
C251     C      0.470800000000     0.634780000000     0.263070000000    -0.00608115 
C252     C      0.452120000000     0.649660000000     0.287790000000     0.30324    
C253     C      0.489830000000     0.555510000000     0.740300000000     0.40662    
C254     C      0.996710000000     0.933040000000     0.739690000000     0.399327   
C255     C      0.432090000000     0.490440000000     0.738810000000     0.406361   
C256     C      0.054490000000     0.997800000000     0.741140000000     0.39966    
C257     C      0.990820000000     0.682810000000     0.743380000000     0.40748    
C258     C      0.995880000000     0.805720000000     0.742250000000     0.406166   
C259     C      0.992950000000     0.743250000000     0.680900000000     0.400915   
C260     C      0.993720000000     0.744840000000     0.803980000000     0.409508   
C261     C      0.241230000000     0.490860000000     0.678960000000     0.410435   
C262     C      0.246130000000     0.494440000000     0.801730000000     0.41978    
C263     C      0.304690000000     0.488970000000     0.739170000000     0.414206   
C264     C      0.181890000000     0.495640000000     0.743050000000     0.414826   
C265     C      0.243610000000     0.554730000000     0.492260000000     0.40692    
C266     C      0.246980000000     0.931850000000     0.987900000000     0.411691   
C267     C      0.244490000000     0.491090000000     0.551770000000     0.408096   
C268     C      0.245590000000     0.995360000000     0.928960000000     0.414655   
C269     C      0.992370000000     0.740590000000     0.553600000000     0.416566   
C270     C      0.493980000000     0.745730000000     0.931140000000     0.411348   
C271     C      0.053850000000     0.744600000000     0.493870000000     0.414145   
C272     C      0.431180000000     0.741530000000     0.991950000000     0.40975    
C273     C      0.241820000000     0.682080000000     0.491460000000     0.407847   
C274     C      0.244470000000     0.804630000000     0.489830000000     0.407278   
C275     C      0.181240000000     0.745090000000     0.491530000000     0.407044   
C276     C      0.303900000000     0.741310000000     0.490300000000     0.408139   
C277     C      0.351930000000     0.756790000000     0.469020000000     0.0369949  
C278     C      0.350790000000     0.723690000000     0.512310000000     0.0628942  
C279     C      0.384070000000     0.758060000000     0.470880000000     0.0313633  
C280     C      0.383230000000     0.723140000000     0.513160000000    -0.00618559 
C281     C      0.398090000000     0.705740000000     0.538850000000     0.303907   
C282     C      0.133100000000     0.728670000000     0.971390000000     0.0398743  
C283     C      0.134450000000     0.762750000000     0.513870000000     0.0621281  
C284     C      0.101010000000     0.727380000000     0.973470000000     0.0299834  
C285     C      0.101960000000     0.763420000000     0.514790000000    -0.00519974 
C286     C      0.087160000000     0.781800000000     0.539830000000     0.306632   
C287     C      0.262100000000     0.852450000000     0.510340000000     0.0392151  
C288     C      0.230350000000     0.851800000000     0.966040000000     0.061008   
C289     C      0.264260000000     0.884600000000     0.508280000000     0.0324955  
C290     C      0.230820000000     0.884170000000     0.964860000000    -0.00697354 
C291     C      0.215270000000     0.899330000000     0.938220000000     0.304303   
C292     C      0.217740000000     0.602390000000     0.502150000000     0.0386532  
C293     C      0.268800000000     0.602480000000     0.483020000000     0.061218   
C294     C      0.218050000000     0.634680000000     0.502830000000     0.0336731  
C295     C      0.268650000000     0.634840000000     0.481720000000    -0.003924   
C296     C      0.297870000000     0.650510000000     0.972560000000     0.296201   
C297     C      0.223190000000     0.981250000000     0.881140000000     0.0449054  
C298     C      0.268910000000     0.510900000000     0.881920000000     0.0619209  
C299     C      0.224860000000     0.979470000000     0.849080000000     0.0312289  
C300     C      0.269090000000     0.511950000000     0.849410000000    -0.00469288 
C301     C      0.294540000000     0.529530000000     0.834210000000     0.302643   
C302     C      0.263750000000     0.508080000000     0.600040000000     0.0387877  
C303     C      0.222900000000     0.472030000000     0.598210000000     0.0617136  
C304     C      0.261310000000     0.509180000000     0.632130000000     0.031643   
C305     C      0.221960000000     0.471020000000     0.630620000000    -0.00897114 
C306     C      0.197970000000     0.951160000000     0.645050000000     0.305693   
C307     C      0.467140000000     0.742680000000     0.852080000000     0.0392395  
C308     C      0.021360000000     0.748510000000     0.851350000000     0.0646079  
C309     C      0.467600000000     0.742620000000     0.884270000000     0.034087   
C310     C      0.021880000000     0.750350000000     0.883760000000    -0.00236337 
C311     C      0.052220000000     0.755240000000     0.899290000000     0.2948     
C312     C      0.969830000000     0.756110000000     0.632960000000     0.0386086  
C313     C      0.015580000000     0.726510000000     0.633970000000     0.0643857  
C314     C      0.970590000000     0.756110000000     0.600770000000     0.0356168  
C315     C      0.014710000000     0.723620000000     0.601670000000    -0.0013925  
C316     C      0.539750000000     0.705480000000     0.586870000000     0.302965   
C317     C      0.102230000000     0.978980000000     0.722880000000     0.0417108  
C318     C      0.101600000000     0.516820000000     0.762070000000     0.0618885  
C319     C      0.134210000000     0.977190000000     0.725160000000     0.0314179  
C320     C      0.134200000000     0.517040000000     0.762740000000    -0.00686686 
C321     C      0.149620000000     0.536640000000     0.786420000000     0.304244   
C322     C      0.384060000000     0.506560000000     0.718330000000     0.0387247  
C323     C      0.385320000000     0.969600000000     0.758310000000     0.0593778  
C324     C      0.351930000000     0.507000000000     0.719760000000     0.0300166  
C325     C      0.352820000000     0.967950000000     0.758250000000    -0.00674452 
C326     C      0.338100000000     0.946670000000     0.780940000000     0.303892   
C327     C      0.479880000000     0.884960000000     0.719700000000     0.0392176  
C328     C      0.015580000000     0.886210000000     0.760850000000     0.0651181  
C329     C      0.478520000000     0.852840000000     0.721870000000     0.0327368  
C330     C      0.016190000000     0.853730000000     0.761680000000    -0.00351694 
C331     C      0.035300000000     0.838840000000     0.786030000000     0.303989   
C332     C      0.006650000000     0.603690000000     0.720570000000     0.0436969  
C333     C      0.471280000000     0.602290000000     0.762010000000     0.0612199  
C334     C      0.008030000000     0.635770000000     0.722840000000     0.0368335  
C335     C      0.470800000000     0.634780000000     0.763070000000    -0.006123   
C336     C      0.452120000000     0.649660000000     0.787790000000     0.303388   
C337     C      0.989830000000     0.055510000000     0.240300000000     0.405111   
C338     C      0.496710000000     0.433040000000     0.239690000000     0.406374   
C339     C      0.932090000000     0.990440000000     0.238810000000     0.405319   
C340     C      0.554490000000     0.497800000000     0.241140000000     0.406809   
C341     C      0.490820000000     0.182810000000     0.243390000000     0.413387   
C342     C      0.495880000000     0.305720000000     0.242250000000     0.41223    
C343     C      0.492950000000     0.243250000000     0.180900000000     0.40691    
C344     C      0.493720000000     0.244840000000     0.303980000000     0.415407   
C345     C      0.741230000000     0.990860000000     0.178960000000     0.404817   
C346     C      0.746130000000     0.994440000000     0.301730000000     0.413953   
C347     C      0.804690000000     0.988970000000     0.239170000000     0.408403   
C348     C      0.681890000000     0.995640000000     0.243050000000     0.409111   
C349     C      0.743610000000     0.054730000000     0.992260000000     0.405962   
C350     C      0.746980000000     0.431850000000     0.487900000000     0.412258   
C351     C      0.744490000000     0.991090000000     0.051770000000     0.407114   
C352     C      0.745590000000     0.495360000000     0.428960000000     0.415504   
C353     C      0.492370000000     0.240590000000     0.053600000000     0.41683    
C354     C      0.993980000000     0.245730000000     0.431150000000     0.410786   
C355     C      0.553850000000     0.244600000000     0.993870000000     0.414314   
C356     C      0.931180000000     0.241530000000     0.491950000000     0.410019   
C357     C      0.741820000000     0.182080000000     0.991470000000     0.403744   
C358     C      0.744470000000     0.304640000000     0.989830000000     0.403037   
C359     C      0.681250000000     0.245090000000     0.991530000000     0.403117   
C360     C      0.803900000000     0.241310000000     0.990300000000     0.404176   
C361     C      0.851930000000     0.256800000000     0.969030000000     0.0363659  
C362     C      0.850790000000     0.223690000000     0.012310000000     0.0654318  
C363     C      0.884070000000     0.258060000000     0.970880000000     0.0309002  
C364     C      0.883230000000     0.223140000000     0.013160000000    -0.00347463 
C365     C      0.898090000000     0.205740000000     0.038850000000     0.303696   
C366     C      0.633100000000     0.228660000000     0.471390000000     0.0403761  
C367     C      0.634450000000     0.262750000000     0.013870000000     0.0644896  
C368     C      0.601010000000     0.227380000000     0.473470000000     0.0304753  
C369     C      0.601960000000     0.263420000000     0.014780000000    -0.00255658 
C370     C      0.587160000000     0.281800000000     0.039830000000     0.306325   
C371     C      0.762100000000     0.352450000000     0.010340000000     0.0416782  
C372     C      0.730350000000     0.351790000000     0.466040000000     0.0617514  
C373     C      0.764260000000     0.384600000000     0.008280000000     0.0354345  
C374     C      0.730820000000     0.384170000000     0.464850000000    -0.00668483 
C375     C      0.715270000000     0.399340000000     0.438220000000     0.304559   
C376     C      0.717740000000     0.102390000000     0.002150000000     0.041743   
C377     C      0.768800000000     0.102480000000     0.983020000000     0.0608967  
C378     C      0.718050000000     0.134680000000     0.002830000000     0.0362623  
C379     C      0.768650000000     0.134840000000     0.981720000000    -0.00454093 
C380     C      0.797870000000     0.150500000000     0.472560000000     0.296083   
C381     C      0.723190000000     0.481250000000     0.381140000000     0.0455779  
C382     C      0.768910000000     0.010900000000     0.381920000000     0.0658682  
C383     C      0.724860000000     0.479480000000     0.349080000000     0.0322992  
C384     C      0.769090000000     0.011950000000     0.349410000000    -0.00153871 
C385     C      0.794540000000     0.029530000000     0.334210000000     0.302329   
C386     C      0.763750000000     0.008080000000     0.100040000000     0.042769   
C387     C      0.722900000000     0.972030000000     0.098210000000     0.0612914  
C388     C      0.761310000000     0.009180000000     0.132130000000     0.0351044  
C389     C      0.721960000000     0.971020000000     0.130620000000    -0.00979876 
C390     C      0.697970000000     0.451160000000     0.145050000000     0.305716   
C391     C      0.967140000000     0.242680000000     0.352080000000     0.0384031  
C392     C      0.521360000000     0.248510000000     0.351350000000     0.061195   
C393     C      0.967600000000     0.242620000000     0.384270000000     0.0336496  
C394     C      0.521880000000     0.250350000000     0.383760000000    -0.00593338 
C395     C      0.552220000000     0.255240000000     0.399290000000     0.295021   
C396     C      0.469830000000     0.256110000000     0.132960000000     0.0395589  
C397     C      0.515580000000     0.226510000000     0.133970000000     0.061002   
C398     C      0.470590000000     0.256100000000     0.100770000000     0.0364754  
C399     C      0.514710000000     0.223620000000     0.101670000000    -0.0050077  
C400     C      0.039750000000     0.205480000000     0.086870000000     0.302803   
C401     C      0.602230000000     0.478980000000     0.222880000000     0.0424458  
C402     C      0.601600000000     0.016820000000     0.262070000000     0.0651978  
C403     C      0.634210000000     0.477190000000     0.225160000000     0.0321039  
C404     C      0.634200000000     0.017040000000     0.262740000000    -0.00374618 
C405     C      0.649620000000     0.036640000000     0.286420000000     0.303857   
C406     C      0.884060000000     0.006560000000     0.218330000000     0.0427083  
C407     C      0.885320000000     0.469590000000     0.258310000000     0.0598298  
C408     C      0.851930000000     0.007000000000     0.219760000000     0.0332314  
C409     C      0.852820000000     0.467960000000     0.258260000000    -0.00568758 
C410     C      0.838100000000     0.446670000000     0.280940000000     0.303752   
C411     C      0.979880000000     0.384960000000     0.219700000000     0.0383641  
C412     C      0.515580000000     0.386210000000     0.260850000000     0.0616307  
C413     C      0.978520000000     0.352840000000     0.221870000000     0.0319755  
C414     C      0.516190000000     0.353730000000     0.261680000000    -0.00687488 
C415     C      0.535300000000     0.338840000000     0.286030000000     0.304466   
C416     C      0.506650000000     0.103690000000     0.220570000000     0.039717   
C417     C      0.971280000000     0.102290000000     0.262010000000     0.0606983  
C418     C      0.508030000000     0.135770000000     0.222840000000     0.0335033  
C419     C      0.970800000000     0.134780000000     0.263070000000    -0.00681088 
C420     C      0.952120000000     0.149660000000     0.287790000000     0.303308   
C421     C      0.989830000000     0.055510000000     0.740300000000     0.405117   
C422     C      0.496710000000     0.433040000000     0.739690000000     0.406382   
C423     C      0.932090000000     0.990440000000     0.738810000000     0.405325   
C424     C      0.554490000000     0.497800000000     0.741140000000     0.406819   
C425     C      0.490820000000     0.182810000000     0.743380000000     0.413364   
C426     C      0.495880000000     0.305720000000     0.742250000000     0.412215   
C427     C      0.492950000000     0.243250000000     0.680900000000     0.406883   
C428     C      0.493720000000     0.244840000000     0.803980000000     0.41548    
C429     C      0.741230000000     0.990860000000     0.678960000000     0.404786   
C430     C      0.746130000000     0.994440000000     0.801730000000     0.413951   
C431     C      0.804690000000     0.988970000000     0.739170000000     0.40839    
C432     C      0.681890000000     0.995640000000     0.743050000000     0.409099   
C433     C      0.743610000000     0.054730000000     0.492260000000     0.406429   
C434     C      0.746980000000     0.431850000000     0.987900000000     0.411827   
C435     C      0.744490000000     0.991090000000     0.551770000000     0.407498   
C436     C      0.745590000000     0.495360000000     0.928960000000     0.415325   
C437     C      0.492370000000     0.240590000000     0.553600000000     0.417341   
C438     C      0.993980000000     0.245730000000     0.931140000000     0.410545   
C439     C      0.553850000000     0.244600000000     0.493870000000     0.414849   
C440     C      0.931180000000     0.241530000000     0.991950000000     0.4095     
C441     C      0.741820000000     0.182080000000     0.491460000000     0.407942   
C442     C      0.744470000000     0.304640000000     0.489830000000     0.407187   
C443     C      0.681250000000     0.245090000000     0.491530000000     0.407055   
C444     C      0.803900000000     0.241310000000     0.490300000000     0.408256   
C445     C      0.851930000000     0.256800000000     0.469020000000     0.0369082  
C446     C      0.850790000000     0.223690000000     0.512310000000     0.0628853  
C447     C      0.884070000000     0.258060000000     0.470880000000     0.0313762  
C448     C      0.883230000000     0.223140000000     0.513160000000    -0.00618986 
C449     C      0.898090000000     0.205740000000     0.538850000000     0.30387    
C450     C      0.633100000000     0.228660000000     0.971390000000     0.0397221  
C451     C      0.634450000000     0.262750000000     0.513870000000     0.0620942  
C452     C      0.601010000000     0.227380000000     0.973470000000     0.0299969  
C453     C      0.601960000000     0.263420000000     0.514790000000    -0.00532628 
C454     C      0.587160000000     0.281800000000     0.539830000000     0.30655    
C455     C      0.762100000000     0.352450000000     0.510340000000     0.0392398  
C456     C      0.730350000000     0.351790000000     0.966040000000     0.0610456  
C457     C      0.764260000000     0.384600000000     0.508280000000     0.032521   
C458     C      0.730820000000     0.384170000000     0.964860000000    -0.00695101 
C459     C      0.715270000000     0.399340000000     0.938220000000     0.304444   
C460     C      0.717740000000     0.102390000000     0.502150000000     0.0388243  
C461     C      0.768800000000     0.102480000000     0.483020000000     0.0613451  
C462     C      0.718050000000     0.134680000000     0.502830000000     0.0337699  
C463     C      0.768650000000     0.134840000000     0.481720000000    -0.00380837 
C464     C      0.797870000000     0.150500000000     0.972560000000     0.296138   
C465     C      0.723190000000     0.481250000000     0.881140000000     0.0455368  
C466     C      0.768910000000     0.010900000000     0.881920000000     0.0658297  
C467     C      0.724860000000     0.479480000000     0.849080000000     0.0322865  
C468     C      0.769090000000     0.011950000000     0.849410000000    -0.00156107 
C469     C      0.794540000000     0.029530000000     0.834210000000     0.302327   
C470     C      0.763750000000     0.008080000000     0.600040000000     0.0426472  
C471     C      0.722900000000     0.972030000000     0.598210000000     0.0611629  
C472     C      0.761310000000     0.009180000000     0.632130000000     0.0349959  
C473     C      0.721960000000     0.971020000000     0.630620000000    -0.00987041 
C474     C      0.697970000000     0.451160000000     0.645050000000     0.305543   
C475     C      0.967140000000     0.242680000000     0.852080000000     0.0383907  
C476     C      0.521360000000     0.248510000000     0.851350000000     0.0611813  
C477     C      0.967600000000     0.242620000000     0.884270000000     0.0336022  
C478     C      0.521880000000     0.250350000000     0.883760000000    -0.00598125 
C479     C      0.552220000000     0.255240000000     0.899290000000     0.295003   
C480     C      0.469830000000     0.256110000000     0.632960000000     0.0394768  
C481     C      0.515580000000     0.226510000000     0.633970000000     0.0609681  
C482     C      0.470590000000     0.256100000000     0.600770000000     0.0364237  
C483     C      0.514710000000     0.223620000000     0.601670000000    -0.00508212 
C484     C      0.039750000000     0.205480000000     0.586870000000     0.302674   
C485     C      0.602230000000     0.478980000000     0.722880000000     0.0424175  
C486     C      0.601600000000     0.016820000000     0.762070000000     0.0652013  
C487     C      0.634210000000     0.477190000000     0.725160000000     0.0320744  
C488     C      0.634200000000     0.017040000000     0.762740000000    -0.00377253 
C489     C      0.649620000000     0.036640000000     0.786420000000     0.30385    
C490     C      0.884060000000     0.006560000000     0.718330000000     0.0426087  
C491     C      0.885320000000     0.469590000000     0.758310000000     0.0598124  
C492     C      0.851930000000     0.007000000000     0.719760000000     0.0332363  
C493     C      0.852820000000     0.467960000000     0.758250000000    -0.00561822 
C494     C      0.838100000000     0.446670000000     0.780940000000     0.303651   
C495     C      0.979880000000     0.384960000000     0.719700000000     0.038354   
C496     C      0.515580000000     0.386210000000     0.760850000000     0.0615999  
C497     C      0.978520000000     0.352840000000     0.721870000000     0.0318843  
C498     C      0.516190000000     0.353730000000     0.761680000000    -0.00685545 
C499     C      0.535300000000     0.338840000000     0.786030000000     0.304449   
C500     C      0.506650000000     0.103690000000     0.720570000000     0.0396971  
C501     C      0.971280000000     0.102290000000     0.762010000000     0.0606931  
C502     C      0.508030000000     0.135770000000     0.722840000000     0.0334576  
C503     C      0.970800000000     0.134780000000     0.763070000000    -0.00685363 
C504     C      0.952120000000     0.149660000000     0.787790000000     0.303456   
C505     C      0.989830000000     0.555510000000     0.240300000000     0.405831   
C506     C      0.496710000000     0.933040000000     0.239690000000     0.405984   
C507     C      0.932090000000     0.490440000000     0.238810000000     0.406014   
C508     C      0.554490000000     0.997800000000     0.241140000000     0.400399   
C509     C      0.490820000000     0.682810000000     0.243390000000     0.413437   
C510     C      0.495880000000     0.805720000000     0.242250000000     0.412225   
C511     C      0.492950000000     0.743250000000     0.180900000000     0.406897   
C512     C      0.493720000000     0.744840000000     0.303980000000     0.4154     
C513     C      0.741230000000     0.490860000000     0.178960000000     0.410451   
C514     C      0.746130000000     0.494440000000     0.301730000000     0.419786   
C515     C      0.804690000000     0.488970000000     0.239170000000     0.414212   
C516     C      0.681890000000     0.495640000000     0.243050000000     0.414805   
C517     C      0.743610000000     0.554730000000     0.992260000000     0.406464   
C518     C      0.746980000000     0.931850000000     0.487900000000     0.412138   
C519     C      0.744490000000     0.491090000000     0.051770000000     0.407725   
C520     C      0.745590000000     0.995360000000     0.428960000000     0.414851   
C521     C      0.492370000000     0.740590000000     0.053600000000     0.416838   
C522     C      0.993980000000     0.745730000000     0.431150000000     0.410802   
C523     C      0.553850000000     0.744600000000     0.993870000000     0.414336   
C524     C      0.931180000000     0.741530000000     0.491950000000     0.410035   
C525     C      0.741820000000     0.682080000000     0.991470000000     0.403635   
C526     C      0.744470000000     0.804630000000     0.989830000000     0.403111   
C527     C      0.681250000000     0.745090000000     0.991530000000     0.403162   
C528     C      0.803900000000     0.741310000000     0.990300000000     0.404176   
C529     C      0.851930000000     0.756790000000     0.969030000000     0.0364151  
C530     C      0.850790000000     0.723690000000     0.012310000000     0.0654317  
C531     C      0.884070000000     0.758060000000     0.970880000000     0.0308288  
C532     C      0.883230000000     0.723140000000     0.013160000000    -0.00352362 
C533     C      0.898090000000     0.705740000000     0.038850000000     0.303658   
C534     C      0.633100000000     0.728670000000     0.471390000000     0.040419   
C535     C      0.634450000000     0.762750000000     0.013870000000     0.0644878  
C536     C      0.601010000000     0.727380000000     0.473470000000     0.0303944  
C537     C      0.601960000000     0.763420000000     0.014780000000    -0.00258985 
C538     C      0.587160000000     0.781800000000     0.039830000000     0.30633    
C539     C      0.762100000000     0.852450000000     0.010340000000     0.0416315  
C540     C      0.730350000000     0.851800000000     0.466040000000     0.0616917  
C541     C      0.764260000000     0.884600000000     0.008280000000     0.0353759  
C542     C      0.730820000000     0.884170000000     0.464850000000    -0.00675784 
C543     C      0.715270000000     0.899330000000     0.438220000000     0.304387   
C544     C      0.717740000000     0.602390000000     0.002150000000     0.0415647  
C545     C      0.768800000000     0.602480000000     0.983020000000     0.0607673  
C546     C      0.718050000000     0.634680000000     0.002830000000     0.0361088  
C547     C      0.768650000000     0.634840000000     0.981720000000    -0.00469282 
C548     C      0.797870000000     0.650510000000     0.472560000000     0.296177   
C549     C      0.723190000000     0.981250000000     0.381140000000     0.0449147  
C550     C      0.768910000000     0.510900000000     0.381920000000     0.0619422  
C551     C      0.724860000000     0.979470000000     0.349080000000     0.0312202  
C552     C      0.769090000000     0.511950000000     0.349410000000    -0.00469011 
C553     C      0.794540000000     0.529530000000     0.334210000000     0.302646   
C554     C      0.763750000000     0.508080000000     0.100040000000     0.0388982  
C555     C      0.722900000000     0.472030000000     0.098210000000     0.0618074  
C556     C      0.761310000000     0.509180000000     0.132130000000     0.0317307  
C557     C      0.721960000000     0.471020000000     0.130620000000    -0.00894739 
C558     C      0.697970000000     0.951160000000     0.145050000000     0.305818   
C559     C      0.967140000000     0.742680000000     0.352080000000     0.0383741  
C560     C      0.521360000000     0.748510000000     0.351350000000     0.06117    
C561     C      0.967600000000     0.742620000000     0.384270000000     0.0336003  
C562     C      0.521880000000     0.750350000000     0.383760000000    -0.00598861 
C563     C      0.552220000000     0.755240000000     0.399290000000     0.295019   
C564     C      0.469830000000     0.756110000000     0.132960000000     0.0395915  
C565     C      0.515580000000     0.726510000000     0.133970000000     0.0609749  
C566     C      0.470590000000     0.756110000000     0.100770000000     0.0363272  
C567     C      0.514710000000     0.723620000000     0.101670000000    -0.00503889 
C568     C      0.039750000000     0.705480000000     0.086870000000     0.302774   
C569     C      0.602230000000     0.978980000000     0.222880000000     0.0416187  
C570     C      0.601600000000     0.516820000000     0.262070000000     0.0617872  
C571     C      0.634210000000     0.977190000000     0.225160000000     0.0312966  
C572     C      0.634200000000     0.517040000000     0.262740000000    -0.00701566 
C573     C      0.649620000000     0.536640000000     0.286420000000     0.304261   
C574     C      0.884060000000     0.506560000000     0.218330000000     0.0387765  
C575     C      0.885320000000     0.969600000000     0.258310000000     0.059348   
C576     C      0.851930000000     0.507000000000     0.219760000000     0.0299845  
C577     C      0.852820000000     0.967950000000     0.258260000000    -0.00686989 
C578     C      0.838100000000     0.946670000000     0.280940000000     0.304      
C579     C      0.979880000000     0.884960000000     0.219700000000     0.0383073  
C580     C      0.515580000000     0.886210000000     0.260850000000     0.0615817  
C581     C      0.978520000000     0.852840000000     0.221870000000     0.0319415  
C582     C      0.516190000000     0.853730000000     0.261680000000    -0.00692709 
C583     C      0.535300000000     0.838840000000     0.286030000000     0.30447    
C584     C      0.506650000000     0.603690000000     0.220570000000     0.0395878  
C585     C      0.971280000000     0.602290000000     0.262010000000     0.0605952  
C586     C      0.508030000000     0.635770000000     0.222840000000     0.0333597  
C587     C      0.970800000000     0.634780000000     0.263070000000    -0.00696714 
C588     C      0.952120000000     0.649660000000     0.287790000000     0.30331    
C589     C      0.989830000000     0.555510000000     0.740300000000     0.405838   
C590     C      0.496710000000     0.933040000000     0.739690000000     0.405992   
C591     C      0.932090000000     0.490440000000     0.738810000000     0.406021   
C592     C      0.554490000000     0.997800000000     0.741140000000     0.4004     
C593     C      0.490820000000     0.682810000000     0.743380000000     0.413413   
C594     C      0.495880000000     0.805720000000     0.742250000000     0.41221    
C595     C      0.492950000000     0.743250000000     0.680900000000     0.40687    
C596     C      0.493720000000     0.744840000000     0.803980000000     0.415472   
C597     C      0.741230000000     0.490860000000     0.678960000000     0.410431   
C598     C      0.746130000000     0.494440000000     0.801730000000     0.41979    
C599     C      0.804690000000     0.488970000000     0.739170000000     0.414208   
C600     C      0.681890000000     0.495640000000     0.743050000000     0.414801   
C601     C      0.743610000000     0.554730000000     0.492260000000     0.406931   
C602     C      0.746980000000     0.931850000000     0.987900000000     0.411708   
C603     C      0.744490000000     0.491090000000     0.551770000000     0.408109   
C604     C      0.745590000000     0.995360000000     0.928960000000     0.414673   
C605     C      0.492370000000     0.740590000000     0.553600000000     0.417351   
C606     C      0.993980000000     0.745730000000     0.931140000000     0.41056    
C607     C      0.553850000000     0.744600000000     0.493870000000     0.414872   
C608     C      0.931180000000     0.741530000000     0.991950000000     0.409515   
C609     C      0.741820000000     0.682080000000     0.491460000000     0.407843   
C610     C      0.744470000000     0.804630000000     0.489830000000     0.407269   
C611     C      0.681250000000     0.745090000000     0.491530000000     0.407107   
C612     C      0.803900000000     0.741310000000     0.490300000000     0.408264   
C613     C      0.851930000000     0.756790000000     0.469020000000     0.0369581  
C614     C      0.850790000000     0.723690000000     0.512310000000     0.0628789  
C615     C      0.884070000000     0.758060000000     0.470880000000     0.0313055  
C616     C      0.883230000000     0.723140000000     0.513160000000    -0.00624581 
C617     C      0.898090000000     0.705740000000     0.538850000000     0.303832   
C618     C      0.633100000000     0.728670000000     0.971390000000     0.0397641  
C619     C      0.634450000000     0.762750000000     0.513870000000     0.0620866  
C620     C      0.601010000000     0.727380000000     0.973470000000     0.029915   
C621     C      0.601960000000     0.763420000000     0.514790000000    -0.00536559 
C622     C      0.587160000000     0.781800000000     0.539830000000     0.306555   
C623     C      0.762100000000     0.852450000000     0.510340000000     0.0391882  
C624     C      0.730350000000     0.851800000000     0.966040000000     0.0609854  
C625     C      0.764260000000     0.884600000000     0.508280000000     0.0324608  
C626     C      0.730820000000     0.884170000000     0.964860000000    -0.00702445 
C627     C      0.715270000000     0.899330000000     0.938220000000     0.304272   
C628     C      0.717740000000     0.602390000000     0.502150000000     0.0386316  
C629     C      0.768800000000     0.602480000000     0.483020000000     0.0612167  
C630     C      0.718050000000     0.634680000000     0.502830000000     0.0336075  
C631     C      0.768650000000     0.634840000000     0.481720000000    -0.00395847 
C632     C      0.797870000000     0.650510000000     0.972560000000     0.296231   
C633     C      0.723190000000     0.981250000000     0.881140000000     0.0448736  
C634     C      0.768910000000     0.510900000000     0.881920000000     0.0619031  
C635     C      0.724860000000     0.979470000000     0.849080000000     0.0312073  
C636     C      0.769090000000     0.511950000000     0.849410000000    -0.00471568 
C637     C      0.794540000000     0.529530000000     0.834210000000     0.302645   
C638     C      0.763750000000     0.508080000000     0.600040000000     0.0387602  
C639     C      0.722900000000     0.472030000000     0.598210000000     0.0616801  
C640     C      0.761310000000     0.509180000000     0.632130000000     0.031613   
C641     C      0.721960000000     0.471020000000     0.630620000000    -0.0090168  
C642     C      0.697970000000     0.951160000000     0.645050000000     0.305645   
C643     C      0.967140000000     0.742680000000     0.852080000000     0.0383617  
C644     C      0.521360000000     0.748510000000     0.851350000000     0.0611563  
C645     C      0.967600000000     0.742620000000     0.884270000000     0.0335528  
C646     C      0.521880000000     0.750350000000     0.883760000000    -0.00603653 
C647     C      0.552220000000     0.755240000000     0.899290000000     0.295001   
C648     C      0.469830000000     0.756110000000     0.632960000000     0.0395092  
C649     C      0.515580000000     0.726510000000     0.633970000000     0.0609408  
C650     C      0.470590000000     0.756110000000     0.600770000000     0.0362753  
C651     C      0.514710000000     0.723620000000     0.601670000000    -0.00511367 
C652     C      0.039750000000     0.705480000000     0.586870000000     0.302644   
C653     C      0.602230000000     0.978980000000     0.722880000000     0.0415892  
C654     C      0.601600000000     0.516820000000     0.762070000000     0.0617853  
C655     C      0.634210000000     0.977190000000     0.725160000000     0.0312661  
C656     C      0.634200000000     0.517040000000     0.762740000000    -0.00704757 
C657     C      0.649620000000     0.536640000000     0.786420000000     0.304254   
C658     C      0.884060000000     0.506560000000     0.718330000000     0.0386708  
C659     C      0.885320000000     0.969600000000     0.758310000000     0.0593299  
C660     C      0.851930000000     0.507000000000     0.719760000000     0.0299827  
C661     C      0.852820000000     0.967950000000     0.758250000000    -0.00680157 
C662     C      0.838100000000     0.946670000000     0.780940000000     0.303899   
C663     C      0.979880000000     0.884960000000     0.719700000000     0.0382971  
C664     C      0.515580000000     0.886210000000     0.760850000000     0.0615508  
C665     C      0.978520000000     0.852840000000     0.721870000000     0.0318501  
C666     C      0.516190000000     0.853730000000     0.761680000000    -0.00690767 
C667     C      0.535300000000     0.838840000000     0.786030000000     0.304452   
C668     C      0.506650000000     0.603690000000     0.720570000000     0.0395677  
C669     C      0.971280000000     0.602290000000     0.762010000000     0.0605898  
C670     C      0.508030000000     0.635770000000     0.722840000000     0.0333136  
C671     C      0.970800000000     0.634780000000     0.763070000000    -0.00701016 
C672     C      0.952120000000     0.649660000000     0.787790000000     0.303458   
Cu1      Cu     0.493710000000     0.494420000000     0.211680000000     0.849366   
Cu2      Cu     0.992850000000     0.994140000000     0.268240000000     0.839174   
Cu3      Cu     0.464780000000     0.245530000000     0.242550000000     0.8597     
Cu4      Cu     0.021840000000     0.242950000000     0.242220000000     0.871605   
Cu5      Cu     0.245160000000     0.020960000000     0.239620000000     0.867932   
Cu6      Cu     0.241470000000     0.464040000000     0.241190000000     0.868391   
Cu7      Cu     0.216640000000     0.492060000000     0.989960000000     0.857422   
Cu8      Cu     0.273640000000     0.994350000000     0.490860000000     0.856997   
Cu9      Cu     0.993360000000     0.214730000000     0.491120000000     0.864935   
Cu10     Cu     0.491640000000     0.271560000000     0.993440000000     0.858342   
Cu11     Cu     0.242880000000     0.243620000000     0.019160000000     0.854771   
Cu12     Cu     0.242270000000     0.242950000000     0.462450000000     0.86408    
Cu13     Cu     0.493710000000     0.494420000000     0.711680000000     0.849134   
Cu14     Cu     0.992850000000     0.994140000000     0.768240000000     0.839108   
Cu15     Cu     0.464780000000     0.245530000000     0.742550000000     0.859557   
Cu16     Cu     0.021840000000     0.242950000000     0.742220000000     0.87164    
Cu17     Cu     0.245160000000     0.020960000000     0.739620000000     0.867921   
Cu18     Cu     0.241470000000     0.464040000000     0.741190000000     0.868401   
Cu19     Cu     0.216640000000     0.492060000000     0.489960000000     0.860456   
Cu20     Cu     0.273640000000     0.994350000000     0.990860000000     0.854043   
Cu21     Cu     0.993360000000     0.214730000000     0.991120000000     0.861856   
Cu22     Cu     0.491640000000     0.271560000000     0.493440000000     0.861428   
Cu23     Cu     0.242880000000     0.243620000000     0.519160000000     0.852508   
Cu24     Cu     0.242270000000     0.242950000000     0.962450000000     0.860375   
Cu25     Cu     0.493710000000     0.994420000000     0.211680000000     0.845412   
Cu26     Cu     0.992850000000     0.494140000000     0.268240000000     0.846979   
Cu27     Cu     0.464780000000     0.745530000000     0.242550000000     0.859582   
Cu28     Cu     0.021840000000     0.742950000000     0.242220000000     0.871619   
Cu29     Cu     0.245160000000     0.520960000000     0.239620000000     0.865173   
Cu30     Cu     0.241470000000     0.964040000000     0.241190000000     0.863382   
Cu31     Cu     0.216640000000     0.992060000000     0.989960000000     0.853525   
Cu32     Cu     0.273640000000     0.494350000000     0.490860000000     0.861328   
Cu33     Cu     0.993360000000     0.714730000000     0.491120000000     0.864661   
Cu34     Cu     0.491640000000     0.771560000000     0.993440000000     0.858255   
Cu35     Cu     0.242880000000     0.743620000000     0.019160000000     0.854741   
Cu36     Cu     0.242270000000     0.742950000000     0.462450000000     0.864238   
Cu37     Cu     0.493710000000     0.994420000000     0.711680000000     0.845172   
Cu38     Cu     0.992850000000     0.494140000000     0.768240000000     0.846921   
Cu39     Cu     0.464780000000     0.745530000000     0.742550000000     0.859439   
Cu40     Cu     0.021840000000     0.742950000000     0.742220000000     0.871654   
Cu41     Cu     0.245160000000     0.520960000000     0.739620000000     0.865156   
Cu42     Cu     0.241470000000     0.964040000000     0.741190000000     0.863385   
Cu43     Cu     0.216640000000     0.992060000000     0.489960000000     0.856551   
Cu44     Cu     0.273640000000     0.494350000000     0.990860000000     0.858367   
Cu45     Cu     0.993360000000     0.714730000000     0.991120000000     0.861575   
Cu46     Cu     0.491640000000     0.771560000000     0.493440000000     0.861343   
Cu47     Cu     0.242880000000     0.743620000000     0.519160000000     0.852473   
Cu48     Cu     0.242270000000     0.742950000000     0.962450000000     0.860525   
Cu49     Cu     0.993710000000     0.494420000000     0.211680000000     0.845053   
Cu50     Cu     0.492850000000     0.994140000000     0.268240000000     0.847348   
Cu51     Cu     0.964780000000     0.245530000000     0.242550000000     0.854426   
Cu52     Cu     0.521840000000     0.242950000000     0.242220000000     0.868666   
Cu53     Cu     0.745160000000     0.020960000000     0.239620000000     0.867947   
Cu54     Cu     0.741470000000     0.464040000000     0.241190000000     0.868401   
Cu55     Cu     0.716640000000     0.492060000000     0.989960000000     0.857138   
Cu56     Cu     0.773640000000     0.994350000000     0.490860000000     0.856889   
Cu57     Cu     0.493360000000     0.214730000000     0.491120000000     0.869457   
Cu58     Cu     0.991640000000     0.271560000000     0.993440000000     0.853967   
Cu59     Cu     0.742880000000     0.243620000000     0.019160000000     0.854794   
Cu60     Cu     0.742270000000     0.242950000000     0.462450000000     0.864095   
Cu61     Cu     0.993710000000     0.494420000000     0.711680000000     0.844813   
Cu62     Cu     0.492850000000     0.994140000000     0.768240000000     0.847289   
Cu63     Cu     0.964780000000     0.245530000000     0.742550000000     0.854276   
Cu64     Cu     0.521840000000     0.242950000000     0.742220000000     0.868696   
Cu65     Cu     0.745160000000     0.020960000000     0.739620000000     0.867936   
Cu66     Cu     0.741470000000     0.464040000000     0.741190000000     0.868412   
Cu67     Cu     0.716640000000     0.492060000000     0.489960000000     0.860178   
Cu68     Cu     0.773640000000     0.994350000000     0.990860000000     0.853934   
Cu69     Cu     0.493360000000     0.214730000000     0.991120000000     0.866368   
Cu70     Cu     0.991640000000     0.271560000000     0.493440000000     0.857043   
Cu71     Cu     0.742880000000     0.243620000000     0.519160000000     0.852526   
Cu72     Cu     0.742270000000     0.242950000000     0.962450000000     0.860382   
Cu73     Cu     0.993710000000     0.994420000000     0.211680000000     0.841114   
Cu74     Cu     0.492850000000     0.494140000000     0.268240000000     0.855187   
Cu75     Cu     0.964780000000     0.745530000000     0.242550000000     0.854302   
Cu76     Cu     0.521840000000     0.742950000000     0.242220000000     0.868674   
Cu77     Cu     0.745160000000     0.520960000000     0.239620000000     0.865182   
Cu78     Cu     0.741470000000     0.964040000000     0.241190000000     0.863386   
Cu79     Cu     0.716640000000     0.992060000000     0.989960000000     0.853235   
Cu80     Cu     0.773640000000     0.494350000000     0.490860000000     0.861222   
Cu81     Cu     0.493360000000     0.714730000000     0.491120000000     0.86919    
Cu82     Cu     0.991640000000     0.771560000000     0.993440000000     0.853879   
Cu83     Cu     0.742880000000     0.743620000000     0.019160000000     0.854765   
Cu84     Cu     0.742270000000     0.742950000000     0.462450000000     0.864252   
Cu85     Cu     0.993710000000     0.994420000000     0.711680000000     0.840867   
Cu86     Cu     0.492850000000     0.494140000000     0.768240000000     0.855135   
Cu87     Cu     0.964780000000     0.745530000000     0.742550000000     0.854152   
Cu88     Cu     0.521840000000     0.742950000000     0.742220000000     0.868704   
Cu89     Cu     0.745160000000     0.520960000000     0.739620000000     0.865165   
Cu90     Cu     0.741470000000     0.964040000000     0.741190000000     0.863389   
Cu91     Cu     0.716640000000     0.992060000000     0.489960000000     0.856267   
Cu92     Cu     0.773640000000     0.494350000000     0.990860000000     0.858259   
Cu93     Cu     0.493360000000     0.714730000000     0.991120000000     0.866094   
Cu94     Cu     0.991640000000     0.771560000000     0.493440000000     0.856958   
Cu95     Cu     0.742880000000     0.743620000000     0.519160000000     0.852491   
Cu96     Cu     0.742270000000     0.742950000000     0.962450000000     0.860531   
H1       H      0.396380000000     0.271990000000     0.954050000000     0.0392554  
H2       H      0.340460000000     0.270380000000     0.951380000000     0.0407223  
H3       H      0.337970000000     0.210490000000     0.029370000000     0.0516311  
H4       H      0.394450000000     0.167360000000     0.065620000000     0.192179   
H5       H      0.088740000000     0.213060000000     0.456940000000     0.0493276  
H6       H      0.144460000000     0.214700000000     0.453960000000     0.0447751  
H7       H      0.147370000000     0.276350000000     0.030530000000     0.0490146  
H8       H      0.052530000000     0.282300000000     0.071500000000     0.192662   
H9       H      0.277730000000     0.396770000000     0.025570000000     0.0406551  
H10      H      0.274720000000     0.340780000000     0.028570000000     0.0414878  
H11      H      0.217390000000     0.339260000000     0.448600000000     0.0499128  
H12      H      0.178670000000     0.396460000000     0.408980000000     0.189654   
H13      H      0.197670000000     0.146720000000     0.011120000000     0.0391523  
H14      H      0.197240000000     0.090500000000     0.010280000000     0.0431681  
H15      H      0.289440000000     0.090430000000     0.975410000000     0.0489701  
H16      H      0.316940000000     0.182330000000     0.443860000000     0.189205   
H17      H      0.206970000000     0.466680000000     0.337020000000     0.046987   
H18      H      0.204420000000     0.469380000000     0.392730000000     0.0503651  
H19      H      0.286870000000     0.022910000000     0.394670000000     0.0478612  
H20      H      0.324200000000     0.030370000000     0.297860000000     0.192969   
H21      H      0.276920000000     0.024300000000     0.144650000000     0.0393366  
H22      H      0.280550000000     0.022900000000     0.088790000000     0.0410733  
H23      H      0.207010000000     0.957730000000     0.085060000000     0.0473667  
H24      H      0.174530000000     0.410720000000     0.140640000000     0.190801   
H25      H      0.445960000000     0.239630000000     0.396600000000     0.0347186  
H26      H      0.445030000000     0.239830000000     0.340650000000     0.0408379  
H27      H      0.043010000000     0.250770000000     0.338920000000     0.0470343  
H28      H      0.074050000000     0.277500000000     0.434330000000     0.189326   
H29      H      0.952680000000     0.268660000000     0.088500000000     0.0475958  
H30      H      0.951570000000     0.268850000000     0.144470000000     0.0403593  
H31      H      0.033800000000     0.214820000000     0.146680000000     0.0430361  
H32      H      0.549030000000     0.167760000000     0.060570000000     0.187632   
H33      H      0.145890000000     0.460470000000     0.210740000000     0.0589481  
H34      H      0.090560000000     0.463440000000     0.207050000000     0.0428832  
H35      H      0.088900000000     0.031890000000     0.277580000000     0.0471423  
H36      H      0.184610000000     0.038240000000     0.317700000000     0.192077   
H37      H      0.339710000000     0.022370000000     0.204160000000     0.0404541  
H38      H      0.395480000000     0.022020000000     0.202240000000     0.040885   
H39      H      0.398250000000     0.455060000000     0.274170000000     0.0468278  
H40      H      0.303750000000     0.442290000000     0.312630000000     0.191914   
H41      H      0.463420000000     0.340540000000     0.206070000000     0.0398658  
H42      H      0.465240000000     0.396400000000     0.202890000000     0.0408121  
H43      H      0.029820000000     0.399090000000     0.277000000000     0.0467315  
H44      H      0.036140000000     0.305170000000     0.318550000000     0.190157   
H45      H      0.022960000000     0.148120000000     0.206920000000     0.0419872  
H46      H      0.021130000000     0.092350000000     0.203550000000     0.0432412  
H47      H      0.457170000000     0.089360000000     0.278230000000     0.0480853  
H48      H      0.451650000000     0.183780000000     0.319920000000     0.187772   
H49      H      0.396380000000     0.271990000000     0.454050000000     0.0393536  
H50      H      0.340460000000     0.270380000000     0.451370000000     0.0408007  
H51      H      0.337970000000     0.210490000000     0.529360000000     0.0515648  
H52      H      0.394450000000     0.167360000000     0.565620000000     0.19192    
H53      H      0.088740000000     0.213060000000     0.956940000000     0.0491969  
H54      H      0.144460000000     0.214700000000     0.953960000000     0.044658   
H55      H      0.147370000000     0.276350000000     0.530530000000     0.049025   
H56      H      0.052530000000     0.282300000000     0.571500000000     0.192585   
H57      H      0.277730000000     0.396770000000     0.525570000000     0.0404172  
H58      H      0.274720000000     0.340780000000     0.528570000000     0.0414169  
H59      H      0.217390000000     0.339260000000     0.948600000000     0.0499094  
H60      H      0.178670000000     0.396460000000     0.908980000000     0.189556   
H61      H      0.197670000000     0.146720000000     0.511120000000     0.0387631  
H62      H      0.197240000000     0.090500000000     0.510280000000     0.0427173  
H63      H      0.289440000000     0.090430000000     0.475410000000     0.0491828  
H64      H      0.316940000000     0.182330000000     0.943860000000     0.189034   
H65      H      0.206970000000     0.466680000000     0.837020000000     0.0469625  
H66      H      0.204420000000     0.469380000000     0.892730000000     0.0502872  
H67      H      0.286870000000     0.022910000000     0.894670000000     0.0477803  
H68      H      0.324200000000     0.030370000000     0.797860000000     0.192952   
H69      H      0.276920000000     0.024300000000     0.644650000000     0.0392269  
H70      H      0.280550000000     0.022900000000     0.588790000000     0.0406637  
H71      H      0.207010000000     0.957730000000     0.585060000000     0.0470178  
H72      H      0.174530000000     0.410720000000     0.640640000000     0.19058    
H73      H      0.445960000000     0.239630000000     0.896600000000     0.0346669  
H74      H      0.445030000000     0.239830000000     0.840650000000     0.0408242  
H75      H      0.043010000000     0.250770000000     0.838920000000     0.0470194  
H76      H      0.074050000000     0.277500000000     0.934330000000     0.189086   
H77      H      0.952680000000     0.268660000000     0.588500000000     0.047278   
H78      H      0.951570000000     0.268850000000     0.644470000000     0.040274   
H79      H      0.033800000000     0.214820000000     0.646680000000     0.0429972  
H80      H      0.549030000000     0.167760000000     0.560570000000     0.18701    
H81      H      0.145890000000     0.460470000000     0.710740000000     0.0589138  
H82      H      0.090560000000     0.463440000000     0.707050000000     0.0428041  
H83      H      0.088900000000     0.031890000000     0.777590000000     0.0471013  
H84      H      0.184610000000     0.038240000000     0.817700000000     0.19203    
H85      H      0.339710000000     0.022370000000     0.704160000000     0.0403749  
H86      H      0.395480000000     0.022020000000     0.702240000000     0.0408019  
H87      H      0.398250000000     0.455060000000     0.774170000000     0.0467904  
H88      H      0.303750000000     0.442290000000     0.812640000000     0.191759   
H89      H      0.463420000000     0.340540000000     0.706070000000     0.0398143  
H90      H      0.465240000000     0.396400000000     0.702890000000     0.0407036  
H91      H      0.029820000000     0.399090000000     0.777000000000     0.0466971  
H92      H      0.036140000000     0.305170000000     0.818550000000     0.190125   
H93      H      0.022960000000     0.148120000000     0.706920000000     0.0419392  
H94      H      0.021130000000     0.092350000000     0.703550000000     0.0431547  
H95      H      0.457170000000     0.089360000000     0.778230000000     0.0480455  
H96      H      0.451650000000     0.183780000000     0.819910000000     0.18776    
H97      H      0.396380000000     0.771990000000     0.954050000000     0.0392103  
H98      H      0.340460000000     0.770380000000     0.951380000000     0.0406681  
H99      H      0.337970000000     0.710490000000     0.029370000000     0.0515848  
H100     H      0.394450000000     0.667360000000     0.065620000000     0.19196    
H101     H      0.088740000000     0.713060000000     0.456940000000     0.0492368  
H102     H      0.144460000000     0.714700000000     0.453960000000     0.0446674  
H103     H      0.147370000000     0.776350000000     0.030530000000     0.0489944  
H104     H      0.052530000000     0.782300000000     0.071500000000     0.192619   
H105     H      0.277730000000     0.896770000000     0.025570000000     0.0404941  
H106     H      0.274720000000     0.840790000000     0.028570000000     0.0414342  
H107     H      0.217390000000     0.839260000000     0.448600000000     0.0499067  
H108     H      0.178670000000     0.896470000000     0.408980000000     0.189378   
H109     H      0.197670000000     0.646720000000     0.011120000000     0.0389867  
H110     H      0.197240000000     0.590500000000     0.010280000000     0.0426264  
H111     H      0.289440000000     0.590420000000     0.975410000000     0.0485575  
H112     H      0.316940000000     0.682330000000     0.443860000000     0.189166   
H113     H      0.206970000000     0.966680000000     0.337020000000     0.0466869  
H114     H      0.204420000000     0.969380000000     0.392730000000     0.0500582  
H115     H      0.286870000000     0.522910000000     0.394670000000     0.0474827  
H116     H      0.324200000000     0.530370000000     0.297860000000     0.1925     
H117     H      0.276920000000     0.524300000000     0.144650000000     0.0392567  
H118     H      0.280550000000     0.522900000000     0.088790000000     0.0406789  
H119     H      0.207010000000     0.457730000000     0.085060000000     0.0475276  
H120     H      0.174530000000     0.910720000000     0.140640000000     0.190718   
H121     H      0.445960000000     0.739630000000     0.396600000000     0.0346726  
H122     H      0.445030000000     0.739830000000     0.340650000000     0.0408138  
H123     H      0.043010000000     0.750770000000     0.338920000000     0.0470115  
H124     H      0.074050000000     0.777500000000     0.434330000000     0.189293   
H125     H      0.952680000000     0.768660000000     0.088500000000     0.0475817  
H126     H      0.951570000000     0.768850000000     0.144470000000     0.0403101  
H127     H      0.033800000000     0.714820000000     0.146680000000     0.0429693  
H128     H      0.549030000000     0.667760000000     0.060570000000     0.187361   
H129     H      0.145890000000     0.960470000000     0.210740000000     0.0589516  
H130     H      0.090560000000     0.963440000000     0.207050000000     0.0428162  
H131     H      0.088900000000     0.531890000000     0.277580000000     0.04712    
H132     H      0.184610000000     0.538240000000     0.317700000000     0.191616   
H133     H      0.339710000000     0.522370000000     0.204160000000     0.040371   
H134     H      0.395480000000     0.522020000000     0.202240000000     0.0405069  
H135     H      0.398250000000     0.955060000000     0.274170000000     0.0465936  
H136     H      0.303750000000     0.942290000000     0.312630000000     0.191857   
H137     H      0.463420000000     0.840540000000     0.206070000000     0.039811   
H138     H      0.465240000000     0.896400000000     0.202890000000     0.0406453  
H139     H      0.029820000000     0.899090000000     0.277000000000     0.0465117  
H140     H      0.036140000000     0.805170000000     0.318550000000     0.190126   
H141     H      0.022960000000     0.648120000000     0.206920000000     0.0418533  
H142     H      0.021130000000     0.592350000000     0.203550000000     0.0427353  
H143     H      0.457170000000     0.589360000000     0.278230000000     0.0476217  
H144     H      0.451650000000     0.683780000000     0.319920000000     0.187706   
H145     H      0.396380000000     0.771990000000     0.454050000000     0.0393084  
H146     H      0.340460000000     0.770380000000     0.451370000000     0.0407465  
H147     H      0.337970000000     0.710490000000     0.529360000000     0.0515178  
H148     H      0.394450000000     0.667360000000     0.565620000000     0.191699   
H149     H      0.088740000000     0.713060000000     0.956940000000     0.0491058  
H150     H      0.144460000000     0.714700000000     0.953960000000     0.0445497  
H151     H      0.147370000000     0.776350000000     0.530530000000     0.0490049  
H152     H      0.052530000000     0.782300000000     0.571500000000     0.192542   
H153     H      0.277730000000     0.896770000000     0.525570000000     0.0402552  
H154     H      0.274720000000     0.840790000000     0.528570000000     0.0413637  
H155     H      0.217390000000     0.839260000000     0.948600000000     0.0499032  
H156     H      0.178670000000     0.896470000000     0.908980000000     0.189279   
H157     H      0.197670000000     0.646720000000     0.511120000000     0.0385955  
H158     H      0.197240000000     0.590500000000     0.510280000000     0.0421718  
H159     H      0.289440000000     0.590420000000     0.475410000000     0.0487705  
H160     H      0.316940000000     0.682330000000     0.943860000000     0.188995   
H161     H      0.206970000000     0.966680000000     0.837020000000     0.0466622  
H162     H      0.204420000000     0.969380000000     0.892730000000     0.0499806  
H163     H      0.286870000000     0.522910000000     0.894670000000     0.0474015  
H164     H      0.324200000000     0.530370000000     0.797860000000     0.192481   
H165     H      0.276920000000     0.524300000000     0.644650000000     0.0391463  
H166     H      0.280550000000     0.522900000000     0.588790000000     0.0402663  
H167     H      0.207010000000     0.457730000000     0.585060000000     0.0471793  
H168     H      0.174530000000     0.910720000000     0.640640000000     0.190496   
H169     H      0.445960000000     0.739630000000     0.896600000000     0.0346207  
H170     H      0.445030000000     0.739830000000     0.840650000000     0.0408     
H171     H      0.043010000000     0.750770000000     0.838920000000     0.0469966  
H172     H      0.074050000000     0.777500000000     0.934330000000     0.189052   
H173     H      0.952680000000     0.768660000000     0.588500000000     0.0472632  
H174     H      0.951570000000     0.768850000000     0.644470000000     0.0402246  
H175     H      0.033800000000     0.714820000000     0.646680000000     0.04293    
H176     H      0.549030000000     0.667760000000     0.560570000000     0.186736   
H177     H      0.145890000000     0.960470000000     0.710740000000     0.0589172  
H178     H      0.090560000000     0.963440000000     0.707050000000     0.0427368  
H179     H      0.088900000000     0.531890000000     0.777590000000     0.0470786  
H180     H      0.184610000000     0.538240000000     0.817700000000     0.191569   
H181     H      0.339710000000     0.522370000000     0.704160000000     0.0402911  
H182     H      0.395480000000     0.522020000000     0.702240000000     0.0404219  
H183     H      0.398250000000     0.955060000000     0.774170000000     0.0465562  
H184     H      0.303750000000     0.942290000000     0.812640000000     0.191702   
H185     H      0.463420000000     0.840540000000     0.706070000000     0.0397593  
H186     H      0.465240000000     0.896400000000     0.702890000000     0.0405363  
H187     H      0.029820000000     0.899090000000     0.777000000000     0.0464772  
H188     H      0.036140000000     0.805170000000     0.818550000000     0.190094   
H189     H      0.022960000000     0.648120000000     0.706920000000     0.0418048  
H190     H      0.021130000000     0.592350000000     0.703550000000     0.0426473  
H191     H      0.457170000000     0.589360000000     0.778230000000     0.0475812  
H192     H      0.451650000000     0.683780000000     0.819910000000     0.187694   
H193     H      0.896380000000     0.271990000000     0.954050000000     0.0391221  
H194     H      0.840460000000     0.270380000000     0.951380000000     0.0406772  
H195     H      0.837970000000     0.210490000000     0.029370000000     0.0516162  
H196     H      0.894450000000     0.167360000000     0.065620000000     0.191849   
H197     H      0.588750000000     0.213060000000     0.456940000000     0.0488976  
H198     H      0.644460000000     0.214700000000     0.453960000000     0.0446739  
H199     H      0.647370000000     0.276350000000     0.030530000000     0.0489597  
H200     H      0.552530000000     0.282300000000     0.071500000000     0.191717   
H201     H      0.777730000000     0.396770000000     0.025570000000     0.0405964  
H202     H      0.774720000000     0.340780000000     0.028570000000     0.0414541  
H203     H      0.717390000000     0.339260000000     0.448600000000     0.0498751  
H204     H      0.678670000000     0.396460000000     0.408980000000     0.189498   
H205     H      0.697680000000     0.146720000000     0.011120000000     0.0390661  
H206     H      0.697240000000     0.090500000000     0.010280000000     0.0430121  
H207     H      0.789440000000     0.090430000000     0.975410000000     0.0489     
H208     H      0.816940000000     0.182330000000     0.443860000000     0.189168   
H209     H      0.706970000000     0.466680000000     0.337020000000     0.04692    
H210     H      0.704420000000     0.469380000000     0.392730000000     0.0502572  
H211     H      0.786870000000     0.022910000000     0.394670000000     0.0477949  
H212     H      0.824200000000     0.030370000000     0.297860000000     0.192805   
H213     H      0.776920000000     0.024300000000     0.144650000000     0.0392986  
H214     H      0.780550000000     0.022900000000     0.088790000000     0.0410048  
H215     H      0.707010000000     0.957730000000     0.085060000000     0.0472544  
H216     H      0.674530000000     0.410720000000     0.140640000000     0.190607   
H217     H      0.945960000000     0.239630000000     0.396600000000     0.0346695  
H218     H      0.945030000000     0.239830000000     0.340650000000     0.0409094  
H219     H      0.543010000000     0.250770000000     0.338920000000     0.0473688  
H220     H      0.574050000000     0.277500000000     0.434330000000     0.189331   
H221     H      0.452680000000     0.268660000000     0.088500000000     0.047709   
H222     H      0.451570000000     0.268850000000     0.144470000000     0.040376   
H223     H      0.533800000000     0.214820000000     0.146680000000     0.0431882  
H224     H      0.049030000000     0.167760000000     0.060570000000     0.188003   
H225     H      0.645890000000     0.460470000000     0.210740000000     0.0588416  
H226     H      0.590560000000     0.463440000000     0.207050000000     0.0423563  
H227     H      0.588900000000     0.031890000000     0.277580000000     0.0466166  
H228     H      0.684610000000     0.038240000000     0.317700000000     0.192004   
H229     H      0.839710000000     0.022370000000     0.204160000000     0.0403992  
H230     H      0.895480000000     0.022020000000     0.202240000000     0.0407154  
H231     H      0.898250000000     0.455060000000     0.274170000000     0.0465831  
H232     H      0.803750000000     0.442290000000     0.312630000000     0.191875   
H233     H      0.963420000000     0.340540000000     0.206070000000     0.0397325  
H234     H      0.965240000000     0.396400000000     0.202890000000     0.0406768  
H235     H      0.529820000000     0.399090000000     0.277000000000     0.0467317  
H236     H      0.536140000000     0.305170000000     0.318550000000     0.189976   
H237     H      0.522960000000     0.148120000000     0.206920000000     0.0418747  
H238     H      0.521130000000     0.092350000000     0.203550000000     0.0428206  
H239     H      0.957170000000     0.089360000000     0.278230000000     0.0479114  
H240     H      0.951650000000     0.183780000000     0.319920000000     0.187651   
H241     H      0.896380000000     0.271990000000     0.454050000000     0.0392203  
H242     H      0.840460000000     0.270380000000     0.451370000000     0.0407553  
H243     H      0.837970000000     0.210490000000     0.529360000000     0.0515494  
H244     H      0.894450000000     0.167360000000     0.565620000000     0.191589   
H245     H      0.588750000000     0.213060000000     0.956940000000     0.0487667  
H246     H      0.644460000000     0.214700000000     0.953960000000     0.0445566  
H247     H      0.647370000000     0.276350000000     0.530530000000     0.04897    
H248     H      0.552530000000     0.282300000000     0.571500000000     0.191637   
H249     H      0.777730000000     0.396770000000     0.525570000000     0.040358   
H250     H      0.774720000000     0.340780000000     0.528570000000     0.0413832  
H251     H      0.717390000000     0.339260000000     0.948600000000     0.0498715  
H252     H      0.678670000000     0.396460000000     0.908980000000     0.189399   
H253     H      0.697680000000     0.146720000000     0.511120000000     0.0386754  
H254     H      0.697240000000     0.090500000000     0.510280000000     0.0425589  
H255     H      0.789440000000     0.090430000000     0.475410000000     0.0491124  
H256     H      0.816940000000     0.182330000000     0.943860000000     0.188998   
H257     H      0.706970000000     0.466680000000     0.837020000000     0.0468954  
H258     H      0.704420000000     0.469380000000     0.892730000000     0.0501792  
H259     H      0.786870000000     0.022910000000     0.894670000000     0.0477142  
H260     H      0.824200000000     0.030370000000     0.797860000000     0.192787   
H261     H      0.776920000000     0.024300000000     0.644650000000     0.0391887  
H262     H      0.780550000000     0.022900000000     0.588790000000     0.0405943  
H263     H      0.707010000000     0.957730000000     0.585060000000     0.0469041  
H264     H      0.674530000000     0.410720000000     0.640640000000     0.190385   
H265     H      0.945960000000     0.239630000000     0.896600000000     0.0346177  
H266     H      0.945030000000     0.239830000000     0.840650000000     0.0408956  
H267     H      0.543010000000     0.250770000000     0.838920000000     0.0473542  
H268     H      0.574050000000     0.277500000000     0.934330000000     0.18909    
H269     H      0.452680000000     0.268660000000     0.588500000000     0.0473917  
H270     H      0.451570000000     0.268850000000     0.644470000000     0.0402908  
H271     H      0.533800000000     0.214820000000     0.646680000000     0.0431495  
H272     H      0.049030000000     0.167760000000     0.560570000000     0.187385   
H273     H      0.645890000000     0.460470000000     0.710740000000     0.0588069  
H274     H      0.590560000000     0.463440000000     0.707050000000     0.0422757  
H275     H      0.588900000000     0.031890000000     0.777590000000     0.0465749  
H276     H      0.684610000000     0.038240000000     0.817700000000     0.191957   
H277     H      0.839710000000     0.022370000000     0.704160000000     0.0403198  
H278     H      0.895480000000     0.022020000000     0.702240000000     0.0406319  
H279     H      0.898250000000     0.455060000000     0.774170000000     0.0465457  
H280     H      0.803750000000     0.442290000000     0.812640000000     0.19172    
H281     H      0.963420000000     0.340540000000     0.706070000000     0.0396806  
H282     H      0.965240000000     0.396400000000     0.702890000000     0.0405679  
H283     H      0.529820000000     0.399090000000     0.777000000000     0.0466974  
H284     H      0.536140000000     0.305170000000     0.818550000000     0.189944   
H285     H      0.522960000000     0.148120000000     0.706920000000     0.0418259  
H286     H      0.521130000000     0.092350000000     0.703550000000     0.0427325  
H287     H      0.957170000000     0.089360000000     0.778230000000     0.0478718  
H288     H      0.951650000000     0.183780000000     0.819910000000     0.187638   
H289     H      0.896380000000     0.771990000000     0.954050000000     0.0390772  
H290     H      0.840460000000     0.770380000000     0.951380000000     0.0406231  
H291     H      0.837970000000     0.710490000000     0.029370000000     0.0515698  
H292     H      0.894450000000     0.667360000000     0.065620000000     0.191629   
H293     H      0.588750000000     0.713060000000     0.456940000000     0.0488056  
H294     H      0.644460000000     0.714700000000     0.453960000000     0.0445656  
H295     H      0.647370000000     0.776350000000     0.030530000000     0.0489394  
H296     H      0.552530000000     0.782300000000     0.071500000000     0.191673   
H297     H      0.777730000000     0.896770000000     0.025570000000     0.0404355  
H298     H      0.774720000000     0.840790000000     0.028570000000     0.0414006  
H299     H      0.717390000000     0.839260000000     0.448600000000     0.0498689  
H300     H      0.678670000000     0.896470000000     0.408980000000     0.189221   
H301     H      0.697680000000     0.646720000000     0.011120000000     0.0388998  
H302     H      0.697240000000     0.590500000000     0.010280000000     0.0424685  
H303     H      0.789440000000     0.590420000000     0.975410000000     0.0484869  
H304     H      0.816940000000     0.682330000000     0.443860000000     0.18913    
H305     H      0.706970000000     0.966680000000     0.337020000000     0.0466191  
H306     H      0.704420000000     0.969380000000     0.392730000000     0.0499498  
H307     H      0.786870000000     0.522910000000     0.394670000000     0.0474161  
H308     H      0.824200000000     0.530370000000     0.297860000000     0.192334   
H309     H      0.776920000000     0.524300000000     0.144650000000     0.0392188  
H310     H      0.780550000000     0.522900000000     0.088790000000     0.04061    
H311     H      0.707010000000     0.457730000000     0.085060000000     0.0474155  
H312     H      0.674530000000     0.910720000000     0.140640000000     0.190524   
H313     H      0.945960000000     0.739630000000     0.396600000000     0.0346234  
H314     H      0.945030000000     0.739830000000     0.340650000000     0.0408854  
H315     H      0.543010000000     0.750770000000     0.338920000000     0.0473464  
H316     H      0.574050000000     0.777500000000     0.434330000000     0.189298   
H317     H      0.452680000000     0.768660000000     0.088500000000     0.0476945  
H318     H      0.451570000000     0.768850000000     0.144470000000     0.0403266  
H319     H      0.533800000000     0.714820000000     0.146680000000     0.0431211  
H320     H      0.049030000000     0.667760000000     0.060570000000     0.187734   
H321     H      0.645890000000     0.960470000000     0.210740000000     0.0588452  
H322     H      0.590560000000     0.963440000000     0.207050000000     0.0422895  
H323     H      0.588900000000     0.531890000000     0.277580000000     0.0465924  
H324     H      0.684610000000     0.538240000000     0.317700000000     0.191542   
H325     H      0.839710000000     0.522370000000     0.204160000000     0.040316   
H326     H      0.895480000000     0.522020000000     0.202240000000     0.0403369  
H327     H      0.898250000000     0.955060000000     0.274170000000     0.0463493  
H328     H      0.803750000000     0.942290000000     0.312630000000     0.191817   
H329     H      0.963420000000     0.840540000000     0.206070000000     0.0396779  
H330     H      0.965240000000     0.896400000000     0.202890000000     0.0405104  
H331     H      0.529820000000     0.899090000000     0.277000000000     0.0465111  
H332     H      0.536140000000     0.805170000000     0.318550000000     0.189945   
H333     H      0.522960000000     0.648120000000     0.206920000000     0.0417398  
H334     H      0.521130000000     0.592350000000     0.203550000000     0.0423114  
H335     H      0.957170000000     0.589360000000     0.278230000000     0.0474476  
H336     H      0.951650000000     0.683780000000     0.319920000000     0.187584   
H337     H      0.896380000000     0.771990000000     0.454050000000     0.0391752  
H338     H      0.840460000000     0.770380000000     0.451370000000     0.0407011  
H339     H      0.837970000000     0.710490000000     0.529360000000     0.0515024  
H340     H      0.894450000000     0.667360000000     0.565620000000     0.191367   
H341     H      0.588750000000     0.713060000000     0.956940000000     0.0486743  
H342     H      0.644460000000     0.714700000000     0.953960000000     0.0444476  
H343     H      0.647370000000     0.776350000000     0.530530000000     0.0489499  
H344     H      0.552530000000     0.782300000000     0.571500000000     0.191593   
H345     H      0.777730000000     0.896770000000     0.525570000000     0.0401962  
H346     H      0.774720000000     0.840790000000     0.528570000000     0.0413301  
H347     H      0.717390000000     0.839260000000     0.948600000000     0.0498653  
H348     H      0.678670000000     0.896470000000     0.908980000000     0.189123   
H349     H      0.697680000000     0.646720000000     0.511120000000     0.0385071  
H350     H      0.697240000000     0.590500000000     0.510280000000     0.0420115  
H351     H      0.789440000000     0.590420000000     0.475410000000     0.0486996  
H352     H      0.816940000000     0.682330000000     0.943860000000     0.188959   
H353     H      0.706970000000     0.966680000000     0.837020000000     0.0465944  
H354     H      0.704420000000     0.969380000000     0.892730000000     0.049872   
H355     H      0.786870000000     0.522910000000     0.894670000000     0.0473351  
H356     H      0.824200000000     0.530370000000     0.797860000000     0.192316   
H357     H      0.776920000000     0.524300000000     0.644650000000     0.0391081  
H358     H      0.780550000000     0.522900000000     0.588790000000     0.0401965  
H359     H      0.707010000000     0.457730000000     0.585060000000     0.0470658  
H360     H      0.674530000000     0.910720000000     0.640640000000     0.190301   
H361     H      0.945960000000     0.739630000000     0.896600000000     0.0345716  
H362     H      0.945030000000     0.739830000000     0.840650000000     0.0408716  
H363     H      0.543010000000     0.750770000000     0.838920000000     0.0473318  
H364     H      0.574050000000     0.777500000000     0.934330000000     0.189056   
H365     H      0.452680000000     0.768660000000     0.588500000000     0.0473765  
H366     H      0.451570000000     0.768850000000     0.644470000000     0.0402412  
H367     H      0.533800000000     0.714820000000     0.646680000000     0.043082   
H368     H      0.049030000000     0.667760000000     0.560570000000     0.187113   
H369     H      0.645890000000     0.960470000000     0.710740000000     0.0588104  
H370     H      0.590560000000     0.963440000000     0.707050000000     0.0422087  
H371     H      0.588900000000     0.531890000000     0.777590000000     0.0465504  
H372     H      0.684610000000     0.538240000000     0.817700000000     0.191495   
H373     H      0.839710000000     0.522370000000     0.704160000000     0.0402359  
H374     H      0.895480000000     0.522020000000     0.702240000000     0.0402515  
H375     H      0.898250000000     0.955060000000     0.774170000000     0.046312   
H376     H      0.803750000000     0.942290000000     0.812640000000     0.191662   
H377     H      0.963420000000     0.840540000000     0.706070000000     0.0396258  
H378     H      0.965240000000     0.896400000000     0.702890000000     0.040401   
H379     H      0.529820000000     0.899090000000     0.777000000000     0.0464768  
H380     H      0.536140000000     0.805170000000     0.818550000000     0.189912   
H381     H      0.522960000000     0.648120000000     0.706920000000     0.0416904  
H382     H      0.521130000000     0.592350000000     0.703550000000     0.0422218  
H383     H      0.957170000000     0.589360000000     0.778230000000     0.0474073  
H384     H      0.951650000000     0.683780000000     0.819910000000     0.187572   
N1       N      0.335450000000     0.240370000000     0.490310000000    -0.179794   
N2       N      0.399650000000     0.240860000000     0.492350000000    -0.162542   
N3       N      0.149690000000     0.245690000000     0.992090000000    -0.180486   
N4       N      0.085430000000     0.245170000000     0.994500000000    -0.163352   
N5       N      0.245490000000     0.336200000000     0.488960000000    -0.179039   
N6       N      0.247810000000     0.400360000000     0.486390000000    -0.161979   
N7       N      0.243210000000     0.086400000000     0.992450000000    -0.179678   
N8       N      0.242940000000     0.150670000000     0.991750000000    -0.163653   
N9       N      0.245850000000     0.495930000000     0.397440000000    -0.177942   
N10      N      0.247230000000     0.495220000000     0.333230000000    -0.161982   
N11      N      0.243900000000     0.990230000000     0.083250000000    -0.182361   
N12      N      0.241030000000     0.990310000000     0.147400000000    -0.163068   
N13      N      0.494040000000     0.245300000000     0.335660000000    -0.176917   
N14      N      0.494660000000     0.246940000000     0.399840000000    -0.162414   
N15      N      0.992790000000     0.242030000000     0.149380000000    -0.181199   
N16      N      0.992520000000     0.239500000000     0.085150000000    -0.162418   
N17      N      0.086020000000     0.498220000000     0.241820000000    -0.17923    
N18      N      0.150290000000     0.496880000000     0.243980000000    -0.159245   
N19      N      0.400590000000     0.988720000000     0.238350000000    -0.181862   
N20      N      0.336280000000     0.987620000000     0.239290000000    -0.163611   
N21      N      0.997650000000     0.401500000000     0.239840000000    -0.180759   
N22      N      0.996970000000     0.337270000000     0.242280000000    -0.163117   
N23      N      0.488990000000     0.087070000000     0.240730000000    -0.178627   
N24      N      0.489790000000     0.151270000000     0.243490000000    -0.161592   
N25      N      0.335450000000     0.240370000000     0.990310000000    -0.180941   
N26      N      0.399650000000     0.240860000000     0.992350000000    -0.164247   
N27      N      0.149690000000     0.245690000000     0.492090000000    -0.179305   
N28      N      0.085430000000     0.245170000000     0.494500000000    -0.161611   
N29      N      0.245490000000     0.336200000000     0.988960000000    -0.180166   
N30      N      0.247810000000     0.400360000000     0.986390000000    -0.163711   
N31      N      0.243210000000     0.086400000000     0.492450000000    -0.177949   
N32      N      0.242940000000     0.150670000000     0.491750000000    -0.162551   
N33      N      0.245850000000     0.495930000000     0.897440000000    -0.17793    
N34      N      0.247230000000     0.495220000000     0.833230000000    -0.161982   
N35      N      0.243900000000     0.990230000000     0.583250000000    -0.182598   
N36      N      0.241030000000     0.990310000000     0.647400000000    -0.163089   
N37      N      0.494040000000     0.245300000000     0.835660000000    -0.176928   
N38      N      0.494660000000     0.246940000000     0.899840000000    -0.162473   
N39      N      0.992790000000     0.242030000000     0.649380000000    -0.181212   
N40      N      0.992520000000     0.239500000000     0.585150000000    -0.162604   
N41      N      0.086020000000     0.498220000000     0.741820000000    -0.17925    
N42      N      0.150290000000     0.496880000000     0.743980000000    -0.159246   
N43      N      0.400590000000     0.988720000000     0.738360000000    -0.181875   
N44      N      0.336280000000     0.987620000000     0.739290000000    -0.163647   
N45      N      0.997650000000     0.401500000000     0.739840000000    -0.180779   
N46      N      0.996970000000     0.337270000000     0.742290000000    -0.16311    
N47      N      0.488990000000     0.087070000000     0.740730000000    -0.178646   
N48      N      0.489790000000     0.151270000000     0.743490000000    -0.16158    
N49      N      0.335450000000     0.740370000000     0.490310000000    -0.179824   
N50      N      0.399650000000     0.740860000000     0.492350000000    -0.162552   
N51      N      0.149690000000     0.745690000000     0.992090000000    -0.180532   
N52      N      0.085430000000     0.745170000000     0.994500000000    -0.163362   
N53      N      0.245490000000     0.836200000000     0.488960000000    -0.178963   
N54      N      0.247810000000     0.900370000000     0.486390000000    -0.162038   
N55      N      0.243210000000     0.586400000000     0.992450000000    -0.180002   
N56      N      0.242940000000     0.650670000000     0.991750000000    -0.163661   
N57      N      0.245850000000     0.995930000000     0.397440000000    -0.18031    
N58      N      0.247230000000     0.995220000000     0.333230000000    -0.163544   
N59      N      0.243900000000     0.490240000000     0.083250000000    -0.18002    
N60      N      0.241030000000     0.490310000000     0.147400000000    -0.161544   
N61      N      0.494040000000     0.745300000000     0.335660000000    -0.176925   
N62      N      0.494660000000     0.746940000000     0.399840000000    -0.162434   
N63      N      0.992790000000     0.742030000000     0.149380000000    -0.181219   
N64      N      0.992520000000     0.739490000000     0.085150000000    -0.162397   
N65      N      0.086020000000     0.998220000000     0.241820000000    -0.180697   
N66      N      0.150290000000     0.996880000000     0.243980000000    -0.160845   
N67      N      0.400590000000     0.488720000000     0.238350000000    -0.17947    
N68      N      0.336280000000     0.487620000000     0.239290000000    -0.162094   
N69      N      0.997650000000     0.901500000000     0.239840000000    -0.18073    
N70      N      0.996970000000     0.837270000000     0.242280000000    -0.163114   
N71      N      0.488990000000     0.587070000000     0.240730000000    -0.178955   
N72      N      0.489790000000     0.651270000000     0.243490000000    -0.161601   
N73      N      0.335450000000     0.740370000000     0.990310000000    -0.180973   
N74      N      0.399650000000     0.740860000000     0.992350000000    -0.164261   
N75      N      0.149690000000     0.745690000000     0.492090000000    -0.179348   
N76      N      0.085430000000     0.745170000000     0.494500000000    -0.161618   
N77      N      0.245490000000     0.836200000000     0.988960000000    -0.180091   
N78      N      0.247810000000     0.900370000000     0.986390000000    -0.16377    
N79      N      0.243210000000     0.586400000000     0.492450000000    -0.178267   
N80      N      0.242940000000     0.650670000000     0.491750000000    -0.162555   
N81      N      0.245850000000     0.995930000000     0.897440000000    -0.180298   
N82      N      0.247230000000     0.995220000000     0.833230000000    -0.163545   
N83      N      0.243900000000     0.490240000000     0.583250000000    -0.18025    
N84      N      0.241030000000     0.490310000000     0.647400000000    -0.16156    
N85      N      0.494040000000     0.745300000000     0.835660000000    -0.176936   
N86      N      0.494660000000     0.746940000000     0.899840000000    -0.162493   
N87      N      0.992790000000     0.742030000000     0.649380000000    -0.181232   
N88      N      0.992520000000     0.739490000000     0.585150000000    -0.162582   
N89      N      0.086020000000     0.998220000000     0.741820000000    -0.180718   
N90      N      0.150290000000     0.996880000000     0.743980000000    -0.160848   
N91      N      0.400590000000     0.488720000000     0.738360000000    -0.17948    
N92      N      0.336280000000     0.487620000000     0.739290000000    -0.162127   
N93      N      0.997650000000     0.901500000000     0.739840000000    -0.18075    
N94      N      0.996970000000     0.837270000000     0.742290000000    -0.163108   
N95      N      0.488990000000     0.587070000000     0.740730000000    -0.178975   
N96      N      0.489790000000     0.651270000000     0.743490000000    -0.161589   
N97      N      0.835440000000     0.240370000000     0.490310000000    -0.179868   
N98      N      0.899650000000     0.240860000000     0.492350000000    -0.162521   
N99      N      0.649690000000     0.245690000000     0.992090000000    -0.180436   
N100     N      0.585430000000     0.245170000000     0.994500000000    -0.163603   
N101     N      0.745490000000     0.336200000000     0.488960000000    -0.179047   
N102     N      0.747810000000     0.400360000000     0.486390000000    -0.161997   
N103     N      0.743210000000     0.086400000000     0.992450000000    -0.179706   
N104     N      0.742940000000     0.150670000000     0.991750000000    -0.163649   
N105     N      0.745850000000     0.495930000000     0.397440000000    -0.177962   
N106     N      0.747230000000     0.495220000000     0.333230000000    -0.16198    
N107     N      0.743900000000     0.990230000000     0.083250000000    -0.182386   
N108     N      0.741030000000     0.990310000000     0.147400000000    -0.163073   
N109     N      0.994040000000     0.245300000000     0.335660000000    -0.178573   
N110     N      0.994660000000     0.246940000000     0.399840000000    -0.164854   
N111     N      0.492790000000     0.242030000000     0.149380000000    -0.179557   
N112     N      0.492520000000     0.239500000000     0.085150000000    -0.159955   
N113     N      0.586020000000     0.498220000000     0.241820000000    -0.179579   
N114     N      0.650290000000     0.496880000000     0.243980000000    -0.159241   
N115     N      0.900590000000     0.988720000000     0.238350000000    -0.18184    
N116     N      0.836280000000     0.987620000000     0.239290000000    -0.163607   
N117     N      0.497650000000     0.401500000000     0.239840000000    -0.179199   
N118     N      0.496970000000     0.337270000000     0.242280000000    -0.161427   
N119     N      0.988990000000     0.087070000000     0.240730000000    -0.181053   
N120     N      0.989790000000     0.151270000000     0.243490000000    -0.163192   
N121     N      0.835440000000     0.240370000000     0.990310000000    -0.181014   
N122     N      0.899650000000     0.240860000000     0.992350000000    -0.164227   
N123     N      0.649690000000     0.245690000000     0.492090000000    -0.17925    
N124     N      0.585430000000     0.245170000000     0.494500000000    -0.161856   
N125     N      0.745490000000     0.336200000000     0.988960000000    -0.180176   
N126     N      0.747810000000     0.400360000000     0.986390000000    -0.163732   
N127     N      0.743210000000     0.086400000000     0.492450000000    -0.177974   
N128     N      0.742940000000     0.150670000000     0.491750000000    -0.162545   
N129     N      0.745850000000     0.495930000000     0.897440000000    -0.17795    
N130     N      0.747230000000     0.495220000000     0.833230000000    -0.161981   
N131     N      0.743900000000     0.990230000000     0.583250000000    -0.182625   
N132     N      0.741030000000     0.990310000000     0.647400000000    -0.163094   
N133     N      0.994040000000     0.245300000000     0.835660000000    -0.178585   
N134     N      0.994660000000     0.246940000000     0.899840000000    -0.164912   
N135     N      0.492790000000     0.242030000000     0.649380000000    -0.179566   
N136     N      0.492520000000     0.239500000000     0.585150000000    -0.160133   
N137     N      0.586020000000     0.498220000000     0.741820000000    -0.179599   
N138     N      0.650290000000     0.496880000000     0.743980000000    -0.159242   
N139     N      0.900590000000     0.988720000000     0.738360000000    -0.181852   
N140     N      0.836280000000     0.987620000000     0.739290000000    -0.163643   
N141     N      0.497650000000     0.401500000000     0.739840000000    -0.179218   
N142     N      0.496970000000     0.337270000000     0.742290000000    -0.161418   
N143     N      0.988990000000     0.087070000000     0.740730000000    -0.181076   
N144     N      0.989790000000     0.151270000000     0.743490000000    -0.163183   
N145     N      0.835440000000     0.740370000000     0.490310000000    -0.179898   
N146     N      0.899650000000     0.740860000000     0.492350000000    -0.162531   
N147     N      0.649690000000     0.745690000000     0.992090000000    -0.180481   
N148     N      0.585430000000     0.745170000000     0.994500000000    -0.163614   
N149     N      0.745490000000     0.836200000000     0.488960000000    -0.178971   
N150     N      0.747810000000     0.900370000000     0.486390000000    -0.162055   
N151     N      0.743210000000     0.586400000000     0.992450000000    -0.180031   
N152     N      0.742940000000     0.650670000000     0.991750000000    -0.163657   
N153     N      0.745850000000     0.995930000000     0.397440000000    -0.180333   
N154     N      0.747230000000     0.995220000000     0.333230000000    -0.163544   
N155     N      0.743900000000     0.490240000000     0.083250000000    -0.180043   
N156     N      0.741030000000     0.490310000000     0.147400000000    -0.161547   
N157     N      0.994040000000     0.745300000000     0.335660000000    -0.178583   
N158     N      0.994660000000     0.746940000000     0.399840000000    -0.164877   
N159     N      0.492790000000     0.742030000000     0.149380000000    -0.179575   
N160     N      0.492520000000     0.739490000000     0.085150000000    -0.159929   
N161     N      0.586020000000     0.998220000000     0.241820000000    -0.181049   
N162     N      0.650290000000     0.996880000000     0.243980000000    -0.160845   
N163     N      0.900590000000     0.488720000000     0.238350000000    -0.179448   
N164     N      0.836280000000     0.487620000000     0.239290000000    -0.16209    
N165     N      0.497650000000     0.901500000000     0.239840000000    -0.179171   
N166     N      0.496970000000     0.837270000000     0.242280000000    -0.161425   
N167     N      0.988990000000     0.587070000000     0.240730000000    -0.181389   
N168     N      0.989790000000     0.651270000000     0.243490000000    -0.163206   
N169     N      0.835440000000     0.740370000000     0.990310000000    -0.181047   
N170     N      0.899650000000     0.740860000000     0.992350000000    -0.16424    
N171     N      0.649690000000     0.745690000000     0.492090000000    -0.179293   
N172     N      0.585430000000     0.745170000000     0.494500000000    -0.161863   
N173     N      0.745490000000     0.836200000000     0.988960000000    -0.180102   
N174     N      0.747810000000     0.900370000000     0.986390000000    -0.16379    
N175     N      0.743210000000     0.586400000000     0.492450000000    -0.178292   
N176     N      0.742940000000     0.650670000000     0.491750000000    -0.162549   
N177     N      0.745850000000     0.995930000000     0.897440000000    -0.180321   
N178     N      0.747230000000     0.995220000000     0.833230000000    -0.163545   
N179     N      0.743900000000     0.490240000000     0.583250000000    -0.180273   
N180     N      0.741030000000     0.490310000000     0.647400000000    -0.161563   
N181     N      0.994040000000     0.745300000000     0.835660000000    -0.178594   
N182     N      0.994660000000     0.746940000000     0.899840000000    -0.164935   
N183     N      0.492790000000     0.742030000000     0.649380000000    -0.179584   
N184     N      0.492520000000     0.739490000000     0.585150000000    -0.160107   
N185     N      0.586020000000     0.998220000000     0.741820000000    -0.181071   
N186     N      0.650290000000     0.996880000000     0.743980000000    -0.160848   
N187     N      0.900590000000     0.488720000000     0.738360000000    -0.179458   
N188     N      0.836280000000     0.487620000000     0.739290000000    -0.162123   
N189     N      0.497650000000     0.901500000000     0.739840000000    -0.179189   
N190     N      0.496970000000     0.837270000000     0.742290000000    -0.161416   
N191     N      0.988990000000     0.587070000000     0.740730000000    -0.181413   
N192     N      0.989790000000     0.651270000000     0.743490000000    -0.163196   
O1       O      0.495910000000     0.041240000000     0.215010000000    -0.386814   
O2       O      0.491360000000     0.447550000000     0.214380000000    -0.390017   
O3       O      0.446870000000     0.496580000000     0.213840000000    -0.39079    
O4       O      0.040440000000     0.992120000000     0.215630000000    -0.385834   
O5       O      0.039170000000     0.001910000000     0.266190000000    -0.377252   
O6       O      0.446660000000     0.486340000000     0.264320000000    -0.388653   
O7       O      0.000560000000     0.447930000000     0.265060000000    -0.381511   
O8       O      0.985270000000     0.040370000000     0.265390000000    -0.385379   
O9       O      0.465630000000     0.198480000000     0.244300000000    -0.379604   
O10      O      0.469540000000     0.292150000000     0.240860000000    -0.389059   
O11      O      0.467260000000     0.244860000000     0.195670000000    -0.392045   
O12      O      0.467890000000     0.246320000000     0.289390000000    -0.385568   
O13      O      0.019290000000     0.243100000000     0.289000000000    -0.381634   
O14      O      0.018790000000     0.242410000000     0.195450000000    -0.388311   
O15      O      0.021050000000     0.290020000000     0.243060000000    -0.375553   
O16      O      0.017110000000     0.196380000000     0.241520000000    -0.384923   
O17      O      0.242490000000     0.016970000000     0.192990000000    -0.386323   
O18      O      0.248930000000     0.019580000000     0.286320000000    -0.372546   
O19      O      0.291440000000     0.015340000000     0.236200000000    -0.385896   
O20      O      0.197960000000     0.020650000000     0.243550000000    -0.37094    
O21      O      0.195110000000     0.469250000000     0.240590000000    -0.384332   
O22      O      0.288600000000     0.464180000000     0.241790000000    -0.377765   
O23      O      0.241160000000     0.468610000000     0.287960000000    -0.384556   
O24      O      0.241190000000     0.465390000000     0.194200000000    -0.379498   
O25      O      0.218220000000     0.039270000000     0.993630000000    -0.38633    
O26      O      0.220860000000     0.445700000000     0.986000000000    -0.382022   
O27      O      0.219160000000     0.488100000000     0.036620000000    -0.390068   
O28      O      0.219660000000     0.994780000000     0.443330000000    -0.387006   
O29      O      0.271260000000     0.994900000000     0.443890000000    -0.388098   
O30      O      0.270240000000     0.495120000000     0.037640000000    -0.390025   
O31      O      0.272150000000     0.447170000000     0.491570000000    -0.38763    
O32      O      0.269600000000     0.040670000000     0.490260000000    -0.391384   
O33      O      0.996390000000     0.215820000000     0.037900000000    -0.367645   
O34      O      0.990730000000     0.219480000000     0.444520000000    -0.389642   
O35      O      0.039910000000     0.218980000000     0.488500000000    -0.384473   
O36      O      0.446510000000     0.216240000000     0.994270000000    -0.379935   
O37      O      0.445120000000     0.267540000000     0.989050000000    -0.39097    
O38      O      0.038460000000     0.269690000000     0.497630000000    -0.37183    
O39      O      0.495740000000     0.270860000000     0.446720000000    -0.376053   
O40      O      0.487570000000     0.266500000000     0.039960000000    -0.384105   
O41      O      0.237490000000     0.196870000000     0.016800000000    -0.382899   
O42      O      0.248550000000     0.290260000000     0.015480000000    -0.385318   
O43      O      0.196410000000     0.249290000000     0.016660000000    -0.387073   
O44      O      0.289220000000     0.237830000000     0.015820000000    -0.387747   
O45      O      0.289170000000     0.245930000000     0.464950000000    -0.387857   
O46      O      0.195490000000     0.239980000000     0.466000000000    -0.389018   
O47      O      0.239410000000     0.289560000000     0.464810000000    -0.393111   
O48      O      0.245290000000     0.196430000000     0.465840000000    -0.375813   
O49      O      0.385520000000     0.178930000000     0.048710000000    -0.326089   
O50      O      0.420910000000     0.216060000000     0.051880000000    -0.227628   
O51      O      0.062190000000     0.270810000000     0.054930000000    -0.315318   
O52      O      0.098290000000     0.306590000000     0.047550000000    -0.228765   
O53      O      0.188980000000     0.387230000000     0.426530000000    -0.331495   
O54      O      0.226740000000     0.422090000000     0.426110000000    -0.232611   
O55      O      0.298040000000     0.172180000000     0.450170000000    -0.31531    
O56      O      0.322200000000     0.142820000000     0.984670000000    -0.227764   
O57      O      0.307410000000     0.019370000000     0.307710000000    -0.310254   
O58      O      0.304570000000     0.053000000000     0.346330000000    -0.227639   
O59      O      0.190370000000     0.423880000000     0.131930000000    -0.333191   
O60      O      0.184240000000     0.959820000000     0.168080000000    -0.234227   
O61      O      0.054360000000     0.273230000000     0.424640000000    -0.318712   
O62      O      0.075640000000     0.243810000000     0.388380000000    -0.232839   
O63      O      0.532980000000     0.180150000000     0.070000000000    -0.314091   
O64      O      0.066720000000     0.212520000000     0.091410000000    -0.224581   
O65      O      0.174500000000     0.025990000000     0.301960000000    -0.324613   
O66      O      0.139090000000     0.062090000000     0.292690000000    -0.228967   
O67      O      0.313270000000     0.455710000000     0.297500000000    -0.311939   
O68      O      0.349270000000     0.421130000000     0.285470000000    -0.231322   
O69      O      0.024230000000     0.314570000000     0.302150000000    -0.321815   
O70      O      0.060750000000     0.349360000000     0.292360000000    -0.229966   
O71      O      0.463280000000     0.174250000000     0.303400000000    -0.322366   
O72      O      0.426970000000     0.138910000000     0.294860000000    -0.23033    
O73      O      0.495910000000     0.041240000000     0.715010000000    -0.386875   
O74      O      0.491360000000     0.447550000000     0.714380000000    -0.390091   
O75      O      0.446870000000     0.496580000000     0.713840000000    -0.390871   
O76      O      0.040440000000     0.992120000000     0.715630000000    -0.385894   
O77      O      0.039170000000     0.001910000000     0.766190000000    -0.377276   
O78      O      0.446660000000     0.486340000000     0.764320000000    -0.388679   
O79      O      0.000560000000     0.447930000000     0.765060000000    -0.381534   
O80      O      0.985270000000     0.040370000000     0.765390000000    -0.385407   
O81      O      0.465630000000     0.198480000000     0.744310000000    -0.379575   
O82      O      0.469540000000     0.292150000000     0.740860000000    -0.389056   
O83      O      0.467260000000     0.244860000000     0.695670000000    -0.392063   
O84      O      0.467890000000     0.246320000000     0.789400000000    -0.385528   
O85      O      0.019290000000     0.243100000000     0.789000000000    -0.381653   
O86      O      0.018790000000     0.242410000000     0.695450000000    -0.388326   
O87      O      0.021050000000     0.290020000000     0.743060000000    -0.375556   
O88      O      0.017110000000     0.196380000000     0.741520000000    -0.384926   
O89      O      0.242490000000     0.016970000000     0.692990000000    -0.386357   
O90      O      0.248930000000     0.019580000000     0.786320000000    -0.372539   
O91      O      0.291440000000     0.015340000000     0.736200000000    -0.385901   
O92      O      0.197960000000     0.020650000000     0.743550000000    -0.370946   
O93      O      0.195110000000     0.469250000000     0.740590000000    -0.384333   
O94      O      0.288600000000     0.464180000000     0.741790000000    -0.377781   
O95      O      0.241160000000     0.468610000000     0.787960000000    -0.384551   
O96      O      0.241190000000     0.465390000000     0.694200000000    -0.379522   
O97      O      0.218220000000     0.039270000000     0.493630000000    -0.385483   
O98      O      0.220860000000     0.445700000000     0.486000000000    -0.38166    
O99      O      0.219160000000     0.488100000000     0.536620000000    -0.392518   
O100     O      0.219660000000     0.994780000000     0.943330000000    -0.386663   
O101     O      0.271260000000     0.994900000000     0.943890000000    -0.387732   
O102     O      0.270240000000     0.495120000000     0.537640000000    -0.392486   
O103     O      0.272150000000     0.447170000000     0.991560000000    -0.388397   
O104     O      0.269600000000     0.040670000000     0.990260000000    -0.391667   
O105     O      0.996390000000     0.215820000000     0.537900000000    -0.369966   
O106     O      0.990730000000     0.219480000000     0.944520000000    -0.389206   
O107     O      0.039910000000     0.218980000000     0.988500000000    -0.384833   
O108     O      0.446510000000     0.216240000000     0.494270000000    -0.379113   
O109     O      0.445120000000     0.267540000000     0.489050000000    -0.390633   
O110     O      0.038460000000     0.269690000000     0.997630000000    -0.372707   
O111     O      0.495740000000     0.270860000000     0.946720000000    -0.375619   
O112     O      0.487570000000     0.266500000000     0.539960000000    -0.386479   
O113     O      0.237490000000     0.196870000000     0.516800000000    -0.385872   
O114     O      0.248550000000     0.290260000000     0.515480000000    -0.388327   
O115     O      0.196410000000     0.249290000000     0.516660000000    -0.389994   
O116     O      0.289220000000     0.237830000000     0.515820000000    -0.390781   
O117     O      0.289170000000     0.245930000000     0.964950000000    -0.386951   
O118     O      0.195490000000     0.239980000000     0.966010000000    -0.38833    
O119     O      0.239410000000     0.289560000000     0.964810000000    -0.392225   
O120     O      0.245290000000     0.196430000000     0.965840000000    -0.374804   
O121     O      0.385520000000     0.178930000000     0.548710000000    -0.326824   
O122     O      0.420910000000     0.216060000000     0.551880000000    -0.228609   
O123     O      0.062190000000     0.270810000000     0.554930000000    -0.316202   
O124     O      0.098290000000     0.306590000000     0.547550000000    -0.229616   
O125     O      0.188980000000     0.387230000000     0.926530000000    -0.331757   
O126     O      0.226740000000     0.422090000000     0.926110000000    -0.232628   
O127     O      0.298040000000     0.172180000000     0.950170000000    -0.315459   
O128     O      0.322200000000     0.142820000000     0.484670000000    -0.226593   
O129     O      0.307410000000     0.019370000000     0.807710000000    -0.310268   
O130     O      0.304570000000     0.053000000000     0.846330000000    -0.227722   
O131     O      0.190370000000     0.423880000000     0.631920000000    -0.333233   
O132     O      0.184240000000     0.959820000000     0.668080000000    -0.234274   
O133     O      0.054360000000     0.273230000000     0.924640000000    -0.31876    
O134     O      0.075640000000     0.243810000000     0.888380000000    -0.232927   
O135     O      0.532980000000     0.180150000000     0.570000000000    -0.314442   
O136     O      0.066720000000     0.212520000000     0.591410000000    -0.224862   
O137     O      0.174500000000     0.025990000000     0.801960000000    -0.324627   
O138     O      0.139090000000     0.062090000000     0.792690000000    -0.229044   
O139     O      0.313270000000     0.455710000000     0.797500000000    -0.311788   
O140     O      0.349270000000     0.421130000000     0.785470000000    -0.23135    
O141     O      0.024230000000     0.314570000000     0.802150000000    -0.321823   
O142     O      0.060750000000     0.349360000000     0.792360000000    -0.230018   
O143     O      0.463280000000     0.174250000000     0.803390000000    -0.322452   
O144     O      0.426970000000     0.138910000000     0.794850000000    -0.23046    
O145     O      0.495910000000     0.541240000000     0.215010000000    -0.390092   
O146     O      0.491360000000     0.947560000000     0.214380000000    -0.38957    
O147     O      0.446870000000     0.996580000000     0.213840000000    -0.391909   
O148     O      0.040440000000     0.492130000000     0.215630000000    -0.38675    
O149     O      0.039170000000     0.501910000000     0.266190000000    -0.384439   
O150     O      0.446660000000     0.986350000000     0.264320000000    -0.388556   
O151     O      0.000560000000     0.947930000000     0.265060000000    -0.380907   
O152     O      0.985270000000     0.540370000000     0.265390000000    -0.38884    
O153     O      0.465630000000     0.698470000000     0.244300000000    -0.379602   
O154     O      0.469540000000     0.792150000000     0.240860000000    -0.389049   
O155     O      0.467260000000     0.744860000000     0.195670000000    -0.392055   
O156     O      0.467890000000     0.746320000000     0.289390000000    -0.38556    
O157     O      0.019290000000     0.743100000000     0.289000000000    -0.381643   
O158     O      0.018790000000     0.742410000000     0.195450000000    -0.388322   
O159     O      0.021050000000     0.790020000000     0.243060000000    -0.375545   
O160     O      0.017110000000     0.696380000000     0.241520000000    -0.384991   
O161     O      0.242490000000     0.516970000000     0.192990000000    -0.39048    
O162     O      0.248930000000     0.519580000000     0.286320000000    -0.376397   
O163     O      0.291440000000     0.515340000000     0.236200000000    -0.389819   
O164     O      0.197960000000     0.520650000000     0.243550000000    -0.374994   
O165     O      0.195110000000     0.969250000000     0.240590000000    -0.383068   
O166     O      0.288600000000     0.964180000000     0.241790000000    -0.376527   
O167     O      0.241160000000     0.968610000000     0.287960000000    -0.383351   
O168     O      0.241190000000     0.965390000000     0.194200000000    -0.378278   
O169     O      0.218220000000     0.539270000000     0.993630000000    -0.38969    
O170     O      0.220860000000     0.945700000000     0.986000000000    -0.381525   
O171     O      0.219160000000     0.988100000000     0.036620000000    -0.390474   
O172     O      0.219660000000     0.494780000000     0.443330000000    -0.386442   
O173     O      0.271260000000     0.494900000000     0.443890000000    -0.387073   
O174     O      0.270240000000     0.995120000000     0.037640000000    -0.391137   
O175     O      0.272150000000     0.947170000000     0.491570000000    -0.387237   
O176     O      0.269600000000     0.540670000000     0.490260000000    -0.394687   
O177     O      0.996390000000     0.715820000000     0.037900000000    -0.367695   
O178     O      0.990730000000     0.719480000000     0.444520000000    -0.389738   
O179     O      0.039910000000     0.718980000000     0.488500000000    -0.384545   
O180     O      0.446510000000     0.716240000000     0.994270000000    -0.380019   
O181     O      0.445120000000     0.767540000000     0.989050000000    -0.391024   
O182     O      0.038460000000     0.769690000000     0.497630000000    -0.371864   
O183     O      0.495740000000     0.770860000000     0.446720000000    -0.376107   
O184     O      0.487570000000     0.766500000000     0.039960000000    -0.384142   
O185     O      0.237490000000     0.696880000000     0.016800000000    -0.382957   
O186     O      0.248550000000     0.790270000000     0.015480000000    -0.385351   
O187     O      0.196410000000     0.749290000000     0.016660000000    -0.387094   
O188     O      0.289220000000     0.737830000000     0.015820000000    -0.387758   
O189     O      0.289170000000     0.745930000000     0.464950000000    -0.387882   
O190     O      0.195490000000     0.739990000000     0.466000000000    -0.389087   
O191     O      0.239410000000     0.789550000000     0.464810000000    -0.393245   
O192     O      0.245290000000     0.696430000000     0.465840000000    -0.375848   
O193     O      0.385520000000     0.678930000000     0.048710000000    -0.326216   
O194     O      0.420910000000     0.716060000000     0.051880000000    -0.227693   
O195     O      0.062190000000     0.770810000000     0.054930000000    -0.315329   
O196     O      0.098290000000     0.806590000000     0.047550000000    -0.22889    
O197     O      0.188980000000     0.887230000000     0.426530000000    -0.331479   
O198     O      0.226740000000     0.922090000000     0.426110000000    -0.23261    
O199     O      0.298040000000     0.672180000000     0.450170000000    -0.315482   
O200     O      0.322200000000     0.642820000000     0.984670000000    -0.228123   
O201     O      0.307410000000     0.519370000000     0.307710000000    -0.312101   
O202     O      0.304570000000     0.553000000000     0.346330000000    -0.228314   
O203     O      0.190370000000     0.923880000000     0.131930000000    -0.333373   
O204     O      0.184240000000     0.459820000000     0.168080000000    -0.233674   
O205     O      0.054360000000     0.773230000000     0.424640000000    -0.318757   
O206     O      0.075640000000     0.743810000000     0.388380000000    -0.23292    
O207     O      0.532980000000     0.680150000000     0.070000000000    -0.314251   
O208     O      0.066720000000     0.712520000000     0.091410000000    -0.22469    
O209     O      0.174500000000     0.525990000000     0.301960000000    -0.326365   
O210     O      0.139090000000     0.562090000000     0.292690000000    -0.22959    
O211     O      0.313270000000     0.955700000000     0.297500000000    -0.31307    
O212     O      0.349270000000     0.921130000000     0.285470000000    -0.231642   
O213     O      0.024230000000     0.814570000000     0.302150000000    -0.321848   
O214     O      0.060750000000     0.849360000000     0.292360000000    -0.230132   
O215     O      0.463280000000     0.674250000000     0.303400000000    -0.32245    
O216     O      0.426970000000     0.638910000000     0.294860000000    -0.230656   
O217     O      0.495910000000     0.541240000000     0.715010000000    -0.39016    
O218     O      0.491360000000     0.947560000000     0.714380000000    -0.389644   
O219     O      0.446870000000     0.996580000000     0.713840000000    -0.391992   
O220     O      0.040440000000     0.492130000000     0.715630000000    -0.386811   
O221     O      0.039170000000     0.501910000000     0.766190000000    -0.384473   
O222     O      0.446660000000     0.986350000000     0.764320000000    -0.388581   
O223     O      0.000560000000     0.947930000000     0.765060000000    -0.380929   
O224     O      0.985270000000     0.540370000000     0.765390000000    -0.388873   
O225     O      0.465630000000     0.698470000000     0.744310000000    -0.379572   
O226     O      0.469540000000     0.792150000000     0.740860000000    -0.389046   
O227     O      0.467260000000     0.744860000000     0.695670000000    -0.392073   
O228     O      0.467890000000     0.746320000000     0.789400000000    -0.385519   
O229     O      0.019290000000     0.743100000000     0.789000000000    -0.381662   
O230     O      0.018790000000     0.742410000000     0.695450000000    -0.388336   
O231     O      0.021050000000     0.790020000000     0.743060000000    -0.375548   
O232     O      0.017110000000     0.696380000000     0.741520000000    -0.384994   
O233     O      0.242490000000     0.516970000000     0.692990000000    -0.390524   
O234     O      0.248930000000     0.519580000000     0.786320000000    -0.376393   
O235     O      0.291440000000     0.515340000000     0.736200000000    -0.38983    
O236     O      0.197960000000     0.520650000000     0.743550000000    -0.375007   
O237     O      0.195110000000     0.969250000000     0.740590000000    -0.383067   
O238     O      0.288600000000     0.964180000000     0.741790000000    -0.376542   
O239     O      0.241160000000     0.968610000000     0.787960000000    -0.383345   
O240     O      0.241190000000     0.965390000000     0.694200000000    -0.378299   
O241     O      0.218220000000     0.539270000000     0.493630000000    -0.388842   
O242     O      0.220860000000     0.945700000000     0.486000000000    -0.381163   
O243     O      0.219160000000     0.988100000000     0.536620000000    -0.392926   
O244     O      0.219660000000     0.494780000000     0.943330000000    -0.386099   
O245     O      0.271260000000     0.494900000000     0.943890000000    -0.386707   
O246     O      0.270240000000     0.995120000000     0.537640000000    -0.393601   
O247     O      0.272150000000     0.947170000000     0.991560000000    -0.388004   
O248     O      0.269600000000     0.540670000000     0.990260000000    -0.394967   
O249     O      0.996390000000     0.715820000000     0.537900000000    -0.370022   
O250     O      0.990730000000     0.719480000000     0.944520000000    -0.389301   
O251     O      0.039910000000     0.718980000000     0.988500000000    -0.384906   
O252     O      0.446510000000     0.716240000000     0.494270000000    -0.379195   
O253     O      0.445120000000     0.767540000000     0.489050000000    -0.390687   
O254     O      0.038460000000     0.769690000000     0.997630000000    -0.372741   
O255     O      0.495740000000     0.770860000000     0.946720000000    -0.375672   
O256     O      0.487570000000     0.766500000000     0.539960000000    -0.386519   
O257     O      0.237490000000     0.696880000000     0.516800000000    -0.385937   
O258     O      0.248550000000     0.790270000000     0.515480000000    -0.388367   
O259     O      0.196410000000     0.749290000000     0.516660000000    -0.390021   
O260     O      0.289220000000     0.737830000000     0.515820000000    -0.390799   
O261     O      0.289170000000     0.745930000000     0.964950000000    -0.386974   
O262     O      0.195490000000     0.739990000000     0.966010000000    -0.388397   
O263     O      0.239410000000     0.789550000000     0.964810000000    -0.392356   
O264     O      0.245290000000     0.696430000000     0.965840000000    -0.374837   
O265     O      0.385520000000     0.678930000000     0.548710000000    -0.326953   
O266     O      0.420910000000     0.716060000000     0.551880000000    -0.228676   
O267     O      0.062190000000     0.770810000000     0.554930000000    -0.316214   
O268     O      0.098290000000     0.806590000000     0.547550000000    -0.229742   
O269     O      0.188980000000     0.887230000000     0.926530000000    -0.331741   
O270     O      0.226740000000     0.922090000000     0.926110000000    -0.232628   
O271     O      0.298040000000     0.672180000000     0.950170000000    -0.315631   
O272     O      0.322200000000     0.642820000000     0.484670000000    -0.226949   
O273     O      0.307410000000     0.519370000000     0.807710000000    -0.312117   
O274     O      0.304570000000     0.553000000000     0.846330000000    -0.228398   
O275     O      0.190370000000     0.923880000000     0.631920000000    -0.333415   
O276     O      0.184240000000     0.459820000000     0.668080000000    -0.233721   
O277     O      0.054360000000     0.773230000000     0.924640000000    -0.318805   
O278     O      0.075640000000     0.743810000000     0.888380000000    -0.233007   
O279     O      0.532980000000     0.680150000000     0.570000000000    -0.314604   
O280     O      0.066720000000     0.712520000000     0.591410000000    -0.224971   
O281     O      0.174500000000     0.525990000000     0.801960000000    -0.326381   
O282     O      0.139090000000     0.562090000000     0.792690000000    -0.229668   
O283     O      0.313270000000     0.955700000000     0.797500000000    -0.312919   
O284     O      0.349270000000     0.921130000000     0.785470000000    -0.231671   
O285     O      0.024230000000     0.814570000000     0.802150000000    -0.321857   
O286     O      0.060750000000     0.849360000000     0.792360000000    -0.230184   
O287     O      0.463280000000     0.674250000000     0.803390000000    -0.322536   
O288     O      0.426970000000     0.638910000000     0.794850000000    -0.230787   
O289     O      0.995910000000     0.041240000000     0.215010000000    -0.387971   
O290     O      0.991360000000     0.447550000000     0.214380000000    -0.389096   
O291     O      0.946870000000     0.496580000000     0.213840000000    -0.390304   
O292     O      0.540440000000     0.992120000000     0.215630000000    -0.389291   
O293     O      0.539170000000     0.001910000000     0.266190000000    -0.380863   
O294     O      0.946660000000     0.486340000000     0.264320000000    -0.388042   
O295     O      0.500560000000     0.447930000000     0.265060000000    -0.389055   
O296     O      0.485270000000     0.040370000000     0.265390000000    -0.385588   
O297     O      0.965630000000     0.198480000000     0.244300000000    -0.378303   
O298     O      0.969540000000     0.292150000000     0.240860000000    -0.38784    
O299     O      0.967260000000     0.244860000000     0.195670000000    -0.390801   
O300     O      0.967890000000     0.246320000000     0.289390000000    -0.384309   
O301     O      0.519290000000     0.243100000000     0.289000000000    -0.385833   
O302     O      0.518790000000     0.242410000000     0.195450000000    -0.392585   
O303     O      0.521050000000     0.290020000000     0.243060000000    -0.379753   
O304     O      0.517110000000     0.196380000000     0.241520000000    -0.389237   
O305     O      0.742490000000     0.016970000000     0.192990000000    -0.386341   
O306     O      0.748930000000     0.019580000000     0.286320000000    -0.372532   
O307     O      0.791440000000     0.015340000000     0.236200000000    -0.38589    
O308     O      0.697960000000     0.020650000000     0.243550000000    -0.370955   
O309     O      0.695110000000     0.469250000000     0.240590000000    -0.384358   
O310     O      0.788600000000     0.464180000000     0.241790000000    -0.377764   
O311     O      0.741160000000     0.468610000000     0.287960000000    -0.384563   
O312     O      0.741190000000     0.465390000000     0.194200000000    -0.379498   
O313     O      0.718220000000     0.039270000000     0.993630000000    -0.386423   
O314     O      0.720860000000     0.445700000000     0.986000000000    -0.382096   
O315     O      0.719160000000     0.488100000000     0.036620000000    -0.390155   
O316     O      0.719660000000     0.994780000000     0.443330000000    -0.38709    
O317     O      0.771260000000     0.994900000000     0.443890000000    -0.388153   
O318     O      0.770240000000     0.495120000000     0.037640000000    -0.390076   
O319     O      0.772150000000     0.447170000000     0.491570000000    -0.387692   
O320     O      0.769600000000     0.040670000000     0.490260000000    -0.391427   
O321     O      0.496390000000     0.215820000000     0.037900000000    -0.366314   
O322     O      0.490730000000     0.219480000000     0.444520000000    -0.389055   
O323     O      0.539910000000     0.218980000000     0.488500000000    -0.387846   
O324     O      0.946510000000     0.216240000000     0.994270000000    -0.379414   
O325     O      0.945120000000     0.267540000000     0.989050000000    -0.390449   
O326     O      0.538460000000     0.269690000000     0.497630000000    -0.375158   
O327     O      0.995740000000     0.270860000000     0.446720000000    -0.377139   
O328     O      0.987570000000     0.266500000000     0.039960000000    -0.384621   
O329     O      0.737490000000     0.196870000000     0.016800000000    -0.382905   
O330     O      0.748550000000     0.290260000000     0.015480000000    -0.385324   
O331     O      0.696410000000     0.249290000000     0.016660000000    -0.387168   
O332     O      0.789220000000     0.237830000000     0.015820000000    -0.387775   
O333     O      0.789170000000     0.245930000000     0.464950000000    -0.387889   
O334     O      0.695490000000     0.239980000000     0.466000000000    -0.389125   
O335     O      0.739410000000     0.289560000000     0.464810000000    -0.393122   
O336     O      0.745290000000     0.196430000000     0.465840000000    -0.375825   
O337     O      0.885520000000     0.178930000000     0.048710000000    -0.326183   
O338     O      0.920910000000     0.216060000000     0.051880000000    -0.227841   
O339     O      0.562190000000     0.270810000000     0.054930000000    -0.315898   
O340     O      0.598290000000     0.306590000000     0.047550000000    -0.229353   
O341     O      0.688980000000     0.387230000000     0.426530000000    -0.331609   
O342     O      0.726740000000     0.422090000000     0.426110000000    -0.232654   
O343     O      0.798040000000     0.172180000000     0.450170000000    -0.315328   
O344     O      0.822200000000     0.142820000000     0.984670000000    -0.227911   
O345     O      0.807400000000     0.019370000000     0.307710000000    -0.310158   
O346     O      0.804570000000     0.053000000000     0.346330000000    -0.227736   
O347     O      0.690370000000     0.423880000000     0.131930000000    -0.333265   
O348     O      0.684240000000     0.959820000000     0.168080000000    -0.234362   
O349     O      0.554360000000     0.273230000000     0.424640000000    -0.32023    
O350     O      0.575650000000     0.243810000000     0.388380000000    -0.233256   
O351     O      0.032980000000     0.180150000000     0.070000000000    -0.31229    
O352     O      0.566720000000     0.212520000000     0.091410000000    -0.225045   
O353     O      0.674500000000     0.025990000000     0.301960000000    -0.324692   
O354     O      0.639090000000     0.062090000000     0.292690000000    -0.229368   
O355     O      0.813270000000     0.455710000000     0.297500000000    -0.311972   
O356     O      0.849270000000     0.421130000000     0.285470000000    -0.23152    
O357     O      0.524230000000     0.314570000000     0.302150000000    -0.32356    
O358     O      0.560750000000     0.349360000000     0.292360000000    -0.230533   
O359     O      0.963280000000     0.174250000000     0.303400000000    -0.323057   
O360     O      0.926970000000     0.138910000000     0.294860000000    -0.230589   
O361     O      0.995910000000     0.041240000000     0.715010000000    -0.388034   
O362     O      0.991360000000     0.447550000000     0.714380000000    -0.389169   
O363     O      0.946870000000     0.496580000000     0.713840000000    -0.390385   
O364     O      0.540440000000     0.992120000000     0.715630000000    -0.389357   
O365     O      0.539170000000     0.001910000000     0.766190000000    -0.380891   
O366     O      0.946660000000     0.486340000000     0.764320000000    -0.388067   
O367     O      0.500560000000     0.447930000000     0.765060000000    -0.389089   
O368     O      0.485270000000     0.040370000000     0.765390000000    -0.385617   
O369     O      0.965630000000     0.198480000000     0.744310000000    -0.378272   
O370     O      0.969540000000     0.292150000000     0.740860000000    -0.387835   
O371     O      0.967260000000     0.244860000000     0.695670000000    -0.390817   
O372     O      0.967890000000     0.246320000000     0.789400000000    -0.384266   
O373     O      0.519290000000     0.243100000000     0.789000000000    -0.385856   
O374     O      0.518790000000     0.242410000000     0.695450000000    -0.392608   
O375     O      0.521050000000     0.290020000000     0.743060000000    -0.379762   
O376     O      0.517110000000     0.196380000000     0.741520000000    -0.389247   
O377     O      0.742490000000     0.016970000000     0.692990000000    -0.386375   
O378     O      0.748930000000     0.019580000000     0.786320000000    -0.372524   
O379     O      0.791440000000     0.015340000000     0.736200000000    -0.385895   
O380     O      0.697960000000     0.020650000000     0.743550000000    -0.370961   
O381     O      0.695110000000     0.469250000000     0.740590000000    -0.384359   
O382     O      0.788600000000     0.464180000000     0.741790000000    -0.37778    
O383     O      0.741160000000     0.468610000000     0.787960000000    -0.384558   
O384     O      0.741190000000     0.465390000000     0.694200000000    -0.379522   
O385     O      0.718220000000     0.039270000000     0.493630000000    -0.385574   
O386     O      0.720860000000     0.445700000000     0.486000000000    -0.381734   
O387     O      0.719160000000     0.488100000000     0.536620000000    -0.392612   
O388     O      0.719660000000     0.994780000000     0.943330000000    -0.386747   
O389     O      0.771260000000     0.994900000000     0.943890000000    -0.387786   
O390     O      0.770240000000     0.495120000000     0.537640000000    -0.392541   
O391     O      0.772150000000     0.447170000000     0.991560000000    -0.38846    
O392     O      0.769600000000     0.040670000000     0.990260000000    -0.391709   
O393     O      0.496390000000     0.215820000000     0.537900000000    -0.368632   
O394     O      0.490730000000     0.219480000000     0.944520000000    -0.388619   
O395     O      0.539910000000     0.218980000000     0.988500000000    -0.388205   
O396     O      0.946510000000     0.216240000000     0.494270000000    -0.378591   
O397     O      0.945120000000     0.267540000000     0.489050000000    -0.390111   
O398     O      0.538460000000     0.269690000000     0.997630000000    -0.376034   
O399     O      0.995740000000     0.270860000000     0.946720000000    -0.376705   
O400     O      0.987570000000     0.266500000000     0.539960000000    -0.386995   
O401     O      0.737490000000     0.196870000000     0.516800000000    -0.385884   
O402     O      0.748550000000     0.290260000000     0.515480000000    -0.388338   
O403     O      0.696410000000     0.249290000000     0.516660000000    -0.390099   
O404     O      0.789220000000     0.237830000000     0.515820000000    -0.390814   
O405     O      0.789170000000     0.245930000000     0.964950000000    -0.386981   
O406     O      0.695490000000     0.239980000000     0.966010000000    -0.388434   
O407     O      0.739410000000     0.289560000000     0.964810000000    -0.392235   
O408     O      0.745290000000     0.196430000000     0.965840000000    -0.374813   
O409     O      0.885520000000     0.178930000000     0.548710000000    -0.326919   
O410     O      0.920910000000     0.216060000000     0.551880000000    -0.228822   
O411     O      0.562190000000     0.270810000000     0.554930000000    -0.316788   
O412     O      0.598290000000     0.306590000000     0.547550000000    -0.230209   
O413     O      0.688980000000     0.387230000000     0.926530000000    -0.331871   
O414     O      0.726740000000     0.422090000000     0.926110000000    -0.232671   
O415     O      0.798040000000     0.172180000000     0.950170000000    -0.315478   
O416     O      0.822200000000     0.142820000000     0.484670000000    -0.22674    
O417     O      0.807400000000     0.019370000000     0.807710000000    -0.310172   
O418     O      0.804570000000     0.053000000000     0.846330000000    -0.22782    
O419     O      0.690370000000     0.423880000000     0.631920000000    -0.333307   
O420     O      0.684240000000     0.959820000000     0.668080000000    -0.23441    
O421     O      0.554360000000     0.273230000000     0.924640000000    -0.320278   
O422     O      0.575650000000     0.243810000000     0.888380000000    -0.233344   
O423     O      0.032980000000     0.180150000000     0.570000000000    -0.312633   
O424     O      0.566720000000     0.212520000000     0.591410000000    -0.225328   
O425     O      0.674500000000     0.025990000000     0.801960000000    -0.324705   
O426     O      0.639090000000     0.062090000000     0.792690000000    -0.229446   
O427     O      0.813270000000     0.455710000000     0.797500000000    -0.311822   
O428     O      0.849270000000     0.421130000000     0.785470000000    -0.231549   
O429     O      0.524230000000     0.314570000000     0.802150000000    -0.323571   
O430     O      0.560750000000     0.349360000000     0.792360000000    -0.230585   
O431     O      0.963280000000     0.174250000000     0.803390000000    -0.323143   
O432     O      0.926970000000     0.138910000000     0.794850000000    -0.230719   
O433     O      0.995910000000     0.541240000000     0.215010000000    -0.391249   
O434     O      0.991360000000     0.947560000000     0.214380000000    -0.38865    
O435     O      0.946870000000     0.996580000000     0.213840000000    -0.391423   
O436     O      0.540440000000     0.492130000000     0.215630000000    -0.390216   
O437     O      0.539170000000     0.501910000000     0.266190000000    -0.388088   
O438     O      0.946660000000     0.986350000000     0.264320000000    -0.387947   
O439     O      0.500560000000     0.947930000000     0.265060000000    -0.388445   
O440     O      0.485270000000     0.540370000000     0.265390000000    -0.389053   
O441     O      0.965630000000     0.698470000000     0.244300000000    -0.378298   
O442     O      0.969540000000     0.792150000000     0.240860000000    -0.387829   
O443     O      0.967260000000     0.744860000000     0.195670000000    -0.39081    
O444     O      0.967890000000     0.746320000000     0.289390000000    -0.384299   
O445     O      0.519290000000     0.743100000000     0.289000000000    -0.385847   
O446     O      0.518790000000     0.742410000000     0.195450000000    -0.392601   
O447     O      0.521050000000     0.790020000000     0.243060000000    -0.379748   
O448     O      0.517110000000     0.696380000000     0.241520000000    -0.389315   
O449     O      0.742490000000     0.516970000000     0.192990000000    -0.390504   
O450     O      0.748930000000     0.519580000000     0.286320000000    -0.376387   
O451     O      0.791440000000     0.515340000000     0.236200000000    -0.389817   
O452     O      0.697960000000     0.520650000000     0.243550000000    -0.375018   
O453     O      0.695110000000     0.969250000000     0.240590000000    -0.383092   
O454     O      0.788600000000     0.964180000000     0.241790000000    -0.376525   
O455     O      0.741160000000     0.968610000000     0.287960000000    -0.383356   
O456     O      0.741190000000     0.965390000000     0.194200000000    -0.378276   
O457     O      0.718220000000     0.539270000000     0.993630000000    -0.389789   
O458     O      0.720860000000     0.945700000000     0.986000000000    -0.381599   
O459     O      0.719160000000     0.988100000000     0.036620000000    -0.390561   
O460     O      0.719660000000     0.494780000000     0.443330000000    -0.386526   
O461     O      0.771260000000     0.494900000000     0.443890000000    -0.387128   
O462     O      0.770240000000     0.995120000000     0.037640000000    -0.391188   
O463     O      0.772150000000     0.947170000000     0.491570000000    -0.387298   
O464     O      0.769600000000     0.540670000000     0.490260000000    -0.394733   
O465     O      0.496390000000     0.715820000000     0.037900000000    -0.366362   
O466     O      0.490730000000     0.719480000000     0.444520000000    -0.389151   
O467     O      0.539910000000     0.718980000000     0.488500000000    -0.387925   
O468     O      0.946510000000     0.716240000000     0.994270000000    -0.379497   
O469     O      0.945120000000     0.767540000000     0.989050000000    -0.390502   
O470     O      0.538460000000     0.769690000000     0.497630000000    -0.375195   
O471     O      0.995740000000     0.770860000000     0.446720000000    -0.377194   
O472     O      0.987570000000     0.766500000000     0.039960000000    -0.384658   
O473     O      0.737490000000     0.696880000000     0.016800000000    -0.382962   
O474     O      0.748550000000     0.790270000000     0.015480000000    -0.385357   
O475     O      0.696410000000     0.749290000000     0.016660000000    -0.387189   
O476     O      0.789220000000     0.737830000000     0.015820000000    -0.387785   
O477     O      0.789170000000     0.745930000000     0.464950000000    -0.387914   
O478     O      0.695490000000     0.739990000000     0.466000000000    -0.389194   
O479     O      0.739410000000     0.789550000000     0.464810000000    -0.393256   
O480     O      0.745290000000     0.696430000000     0.465840000000    -0.37586    
O481     O      0.885520000000     0.678930000000     0.048710000000    -0.32631    
O482     O      0.920910000000     0.716060000000     0.051880000000    -0.227905   
O483     O      0.562190000000     0.770810000000     0.054930000000    -0.315909   
O484     O      0.598290000000     0.806590000000     0.047550000000    -0.229478   
O485     O      0.688980000000     0.887230000000     0.426530000000    -0.331594   
O486     O      0.726740000000     0.922090000000     0.426110000000    -0.232653   
O487     O      0.798040000000     0.672180000000     0.450170000000    -0.3155     
O488     O      0.822200000000     0.642820000000     0.984670000000    -0.22827    
O489     O      0.807400000000     0.519370000000     0.307710000000    -0.312007   
O490     O      0.804570000000     0.553000000000     0.346330000000    -0.228412   
O491     O      0.690370000000     0.923880000000     0.131930000000    -0.333447   
O492     O      0.684240000000     0.459820000000     0.168080000000    -0.233808   
O493     O      0.554360000000     0.773230000000     0.424640000000    -0.320277   
O494     O      0.575650000000     0.743810000000     0.388380000000    -0.233337   
O495     O      0.032980000000     0.680150000000     0.070000000000    -0.312445   
O496     O      0.566720000000     0.712520000000     0.091410000000    -0.225154   
O497     O      0.674500000000     0.525990000000     0.301960000000    -0.326448   
O498     O      0.639090000000     0.562090000000     0.292690000000    -0.229995   
O499     O      0.813270000000     0.955700000000     0.297500000000    -0.313104   
O500     O      0.849270000000     0.921130000000     0.285470000000    -0.23184    
O501     O      0.524230000000     0.814570000000     0.302150000000    -0.323596   
O502     O      0.560750000000     0.849360000000     0.292360000000    -0.2307     
O503     O      0.963280000000     0.674250000000     0.303400000000    -0.323143   
O504     O      0.926970000000     0.638910000000     0.294860000000    -0.230916   
O505     O      0.995910000000     0.541240000000     0.715010000000    -0.391318   
O506     O      0.991360000000     0.947560000000     0.714380000000    -0.388723   
O507     O      0.946870000000     0.996580000000     0.713840000000    -0.391505   
O508     O      0.540440000000     0.492130000000     0.715630000000    -0.390283   
O509     O      0.539170000000     0.501910000000     0.766190000000    -0.388126   
O510     O      0.946660000000     0.986350000000     0.764320000000    -0.387972   
O511     O      0.500560000000     0.947930000000     0.765060000000    -0.388478   
O512     O      0.485270000000     0.540370000000     0.765390000000    -0.389087   
O513     O      0.965630000000     0.698470000000     0.744310000000    -0.378267   
O514     O      0.969540000000     0.792150000000     0.740860000000    -0.387825   
O515     O      0.967260000000     0.744860000000     0.695670000000    -0.390826   
O516     O      0.967890000000     0.746320000000     0.789400000000    -0.384256   
O517     O      0.519290000000     0.743100000000     0.789000000000    -0.38587    
O518     O      0.518790000000     0.742410000000     0.695450000000    -0.392625   
O519     O      0.521050000000     0.790020000000     0.743060000000    -0.379757   
O520     O      0.517110000000     0.696380000000     0.741520000000    -0.389324   
O521     O      0.742490000000     0.516970000000     0.692990000000    -0.390548   
O522     O      0.748930000000     0.519580000000     0.786320000000    -0.376384   
O523     O      0.791440000000     0.515340000000     0.736200000000    -0.389828   
O524     O      0.697960000000     0.520650000000     0.743550000000    -0.375031   
O525     O      0.695110000000     0.969250000000     0.740590000000    -0.383092   
O526     O      0.788600000000     0.964180000000     0.741790000000    -0.37654    
O527     O      0.741160000000     0.968610000000     0.787960000000    -0.38335    
O528     O      0.741190000000     0.965390000000     0.694200000000    -0.378298   
O529     O      0.718220000000     0.539270000000     0.493630000000    -0.388939   
O530     O      0.720860000000     0.945700000000     0.486000000000    -0.381237   
O531     O      0.719160000000     0.988100000000     0.536620000000    -0.393019   
O532     O      0.719660000000     0.494780000000     0.943330000000    -0.386183   
O533     O      0.771260000000     0.494900000000     0.943890000000    -0.386761   
O534     O      0.770240000000     0.995120000000     0.537640000000    -0.393656   
O535     O      0.772150000000     0.947170000000     0.991560000000    -0.388066   
O536     O      0.769600000000     0.540670000000     0.990260000000    -0.395014   
O537     O      0.496390000000     0.715820000000     0.537900000000    -0.368685   
O538     O      0.490730000000     0.719480000000     0.944520000000    -0.388714   
O539     O      0.539910000000     0.718980000000     0.988500000000    -0.388284   
O540     O      0.946510000000     0.716240000000     0.494270000000    -0.378673   
O541     O      0.945120000000     0.767540000000     0.489050000000    -0.390164   
O542     O      0.538460000000     0.769690000000     0.997630000000    -0.376072   
O543     O      0.995740000000     0.770860000000     0.946720000000    -0.376759   
O544     O      0.987570000000     0.766500000000     0.539960000000    -0.387036   
O545     O      0.737490000000     0.696880000000     0.516800000000    -0.385949   
O546     O      0.748550000000     0.790270000000     0.515480000000    -0.388378   
O547     O      0.696410000000     0.749290000000     0.516660000000    -0.390126   
O548     O      0.789220000000     0.737830000000     0.515820000000    -0.390831   
O549     O      0.789170000000     0.745930000000     0.964950000000    -0.387005   
O550     O      0.695490000000     0.739990000000     0.966010000000    -0.388501   
O551     O      0.739410000000     0.789550000000     0.964810000000    -0.392367   
O552     O      0.745290000000     0.696430000000     0.965840000000    -0.374847   
O553     O      0.885520000000     0.678930000000     0.548710000000    -0.327049   
O554     O      0.920910000000     0.716060000000     0.551880000000    -0.228889   
O555     O      0.562190000000     0.770810000000     0.554930000000    -0.316801   
O556     O      0.598290000000     0.806590000000     0.547550000000    -0.230336   
O557     O      0.688980000000     0.887230000000     0.926530000000    -0.331856   
O558     O      0.726740000000     0.922090000000     0.926110000000    -0.232671   
O559     O      0.798040000000     0.672180000000     0.950170000000    -0.31565    
O560     O      0.822200000000     0.642820000000     0.484670000000    -0.227097   
O561     O      0.807400000000     0.519370000000     0.807710000000    -0.312023   
O562     O      0.804570000000     0.553000000000     0.846330000000    -0.228496   
O563     O      0.690370000000     0.923880000000     0.631920000000    -0.33349    
O564     O      0.684240000000     0.459820000000     0.668080000000    -0.233855   
O565     O      0.554360000000     0.773230000000     0.924640000000    -0.320325   
O566     O      0.575650000000     0.743810000000     0.888380000000    -0.233425   
O567     O      0.032980000000     0.680150000000     0.570000000000    -0.312789   
O568     O      0.566720000000     0.712520000000     0.591410000000    -0.225438   
O569     O      0.674500000000     0.525990000000     0.801960000000    -0.326464   
O570     O      0.639090000000     0.562090000000     0.792690000000    -0.230074   
O571     O      0.813270000000     0.955700000000     0.797500000000    -0.312953   
O572     O      0.849270000000     0.921130000000     0.785470000000    -0.231868   
O573     O      0.524230000000     0.814570000000     0.802150000000    -0.323607   
O574     O      0.560750000000     0.849360000000     0.792360000000    -0.230752   
O575     O      0.963280000000     0.674250000000     0.803390000000    -0.323229   
O576     O      0.926970000000     0.638910000000     0.794850000000    -0.231047   


