data_structure

_audit_creation_method RASPA-1.0
_audit_creation_date 2023-6-5
_audit_author_name 'Poobodin Mano'

_cell_length_a    35.5999
_cell_length_b    35.6092
_cell_length_c    21.204
_cell_angle_alpha 89.9819
_cell_angle_beta  90.0181
_cell_angle_gamma 119.978
_cell_volume      23283.9

_symmetry_cell_setting          triclinic
_symmetry_space_group_name_Hall 'P 1'
_symmetry_space_group_name_H-M  'P 1'
_symmetry_Int_Tables_number     1

_symmetry_equiv_pos_as_xyz 'x,y,z'

loop_
_atom_site_label
_atom_site_type_symbol
_atom_site_fract_x
_atom_site_fract_y
_atom_site_fract_z
_atom_site_charge
C1       C      0.750950000000     0.629100000000     0.607450000000     0.431363   
C2       C      0.916530000000     0.706490000000     0.680170000000     0.404556   
C3       C      0.855530000000     0.670640000000     0.522960000000     0.40559    
C4       C      0.811980000000     0.664670000000     0.764560000000     0.405493   
C5       C      0.084310000000     0.790980000000     0.774300000000     0.429602   
C6       C      0.250180000000     0.878630000000     0.846020000000     0.432685   
C7       C      0.188520000000     0.853820000000     0.689360000000     0.408277   
C8       C      0.145990000000     0.815420000000     0.931190000000     0.404773   
C9       C      0.417940000000     0.961110000000     0.939870000000     0.40451    
C10      C      0.583570000000     0.037260000000     0.012060000000     0.435349   
C11      C      0.522220000000     0.001550000000     0.855160000000     0.437847   
C12      C      0.479220000000     0.997040000000     0.096850000000     0.405977   
C13      C      0.249990000000     0.373950000000     0.345880000000     0.405825   
C14      C      0.084460000000     0.296070000000     0.272850000000     0.434442   
C15      C      0.145340000000     0.332120000000     0.430150000000     0.439931   
C16      C      0.189120000000     0.337820000000     0.188610000000     0.407577   
C17      C      0.751460000000     0.121660000000     0.105540000000     0.40863    
C18      C      0.917000000000     0.210850000000     0.177860000000     0.405651   
C19      C      0.855740000000     0.185540000000     0.020790000000     0.407962   
C20      C      0.812740000000     0.146900000000     0.262480000000     0.439493   
C21      C      0.583130000000     0.545130000000     0.513740000000     0.407225   
C22      C      0.417570000000     0.458280000000     0.440700000000     0.430888   
C23      C      0.478470000000     0.482600000000     0.598120000000     0.407158   
C24      C      0.522240000000     0.520610000000     0.356570000000     0.439694   
C25      C      0.124000000000     0.374180000000     0.845130000000     0.408606   
C26      C      0.212610000000     0.297000000000     0.773400000000     0.433019   
C27      C      0.187950000000     0.334290000000     0.930190000000     0.436425   
C28      C      0.148600000000     0.337170000000     0.688440000000     0.408431   
C29      C      0.294720000000     0.211530000000     0.678780000000     0.406799   
C30      C      0.370670000000     0.121970000000     0.606100000000     0.407682   
C31      C      0.334850000000     0.147360000000     0.763250000000     0.43968    
C32      C      0.330130000000     0.186100000000     0.521660000000     0.437233   
C33      C      0.039210000000     0.457040000000     0.939540000000     0.435154   
C34      C      0.961060000000     0.544540000000     0.012510000000     0.429573   
C35      C      0.998420000000     0.520400000000     0.854990000000     0.433354   
C36      C      0.002640000000     0.481540000000     0.096550000000     0.408403   
C37      C      0.627820000000     0.878060000000     0.345020000000     0.407718   
C38      C      0.704750000000     0.789120000000     0.273790000000     0.435092   
C39      C      0.666900000000     0.813540000000     0.430280000000     0.436683   
C40      C      0.665660000000     0.853770000000     0.188540000000     0.436036   
C41      C      0.877830000000     0.628740000000     0.108010000000     0.406194   
C42      C      0.789340000000     0.706040000000     0.179480000000     0.406714   
C43      C      0.813690000000     0.668370000000     0.022920000000     0.433653   
C44      C      0.853680000000     0.666640000000     0.264610000000     0.433674   
C45      C      0.544020000000     0.961810000000     0.439780000000     0.431508   
C46      C      0.454100000000     0.037550000000     0.512230000000     0.434484   
C47      C      0.479860000000     0.001930000000     0.355180000000     0.437848   
C48      C      0.518390000000     0.997330000000     0.596860000000     0.406768   
C49      C      0.292620000000     0.084330000000     0.178880000000     0.431721   
C50      C      0.370520000000     0.250030000000     0.106440000000     0.431869   
C51      C      0.334140000000     0.188640000000     0.263350000000     0.406601   
C52      C      0.329550000000     0.145710000000     0.021620000000     0.407198   
C53      C      0.454960000000     0.417930000000     0.013180000000     0.405794   
C54      C      0.542780000000     0.583670000000     0.941660000000     0.407801   
C55      C      0.518630000000     0.522040000000     0.098310000000     0.407006   
C56      C      0.479400000000     0.479930000000     0.856540000000     0.436031   
C57      C      0.210240000000     0.916850000000     0.273960000000     0.40822    
C58      C      0.124090000000     0.751210000000     0.346710000000     0.431605   
C59      C      0.148000000000     0.812290000000     0.189510000000     0.437218   
C60      C      0.186300000000     0.856000000000     0.431060000000     0.439921   
C61      C      0.039840000000     0.583220000000     0.440000000000     0.406592   
C62      C      0.962160000000     0.417490000000     0.511640000000     0.406399   
C63      C      0.999200000000     0.479260000000     0.354890000000     0.436805   
C64      C      0.002760000000     0.521660000000     0.596600000000     0.405215   
C65      C      0.879180000000     0.249730000000     0.605410000000     0.435374   
C66      C      0.791520000000     0.084100000000     0.678120000000     0.430339   
C67      C      0.816000000000     0.145290000000     0.520810000000     0.407565   
C68      C      0.854410000000     0.188630000000     0.762460000000     0.439874   
C69      C      0.626260000000     0.751080000000     0.846370000000     0.431736   
C70      C      0.706070000000     0.916530000000     0.772780000000     0.405736   
C71      C      0.669550000000     0.855850000000     0.930180000000     0.407656   
C72      C      0.662860000000     0.811760000000     0.688670000000     0.407691   
C73      C      0.704750000000     0.979580000000     0.737200000000     0.0258865  
C74      C      0.770570000000     0.978890000000     0.738690000000    -0.0742302  
C75      C      0.726470000000     0.021820000000     0.712940000000     0.0507887  
C76      C      0.792150000000     0.020590000000     0.713490000000     0.375534   
C77      C      0.898350000000     0.353960000000     0.544970000000     0.0254965  
C78      C      0.965250000000     0.355420000000     0.547190000000    -0.0689944  
C79      C      0.877850000000     0.312250000000     0.570070000000     0.0532111  
C80      C      0.944580000000     0.313140000000     0.571350000000     0.379119   
C81      C      0.037780000000     0.645960000000     0.404570000000     0.024445   
C82      C      0.104080000000     0.646250000000     0.406930000000    -0.0710211  
C83      C      0.059230000000     0.688340000000     0.380720000000     0.0498658  
C84      C      0.125390000000     0.688050000000     0.382110000000     0.379811   
C85      C      0.607390000000     0.646100000000     0.905280000000     0.0257348  
C86      C      0.541510000000     0.646640000000     0.908330000000    -0.0700425  
C87      C      0.628240000000     0.688290000000     0.880840000000     0.0515221  
C88      C      0.561940000000     0.688290000000     0.882920000000     0.379065   
C89      C      0.274670000000     0.979750000000     0.238180000000     0.0274345  
C90      C      0.208300000000     0.979350000000     0.239940000000    -0.0703414  
C91      C      0.295260000000     0.021970000000     0.213810000000     0.0516291  
C92      C      0.228480000000     0.021010000000     0.214580000000     0.37892    
C93      C      0.455420000000     0.354430000000     0.046310000000     0.0247831  
C94      C      0.389910000000     0.355750000000     0.048640000000    -0.0708842  
C95      C      0.434290000000     0.312670000000     0.071280000000     0.0503037  
C96      C      0.368380000000     0.313430000000     0.072650000000     0.376279   
C97      C      0.701850000000     0.821140000000     0.593740000000     0.0292989  
C98      C      0.625520000000     0.787040000000     0.591210000000    -0.0695957  
C99      C      0.702940000000     0.822980000000     0.527970000000     0.0559305  
C100     C      0.626370000000     0.786100000000     0.525360000000     0.379945   
C101     C      0.630590000000     0.846320000000     0.025190000000     0.0299319  
C102     C      0.706930000000     0.880570000000     0.027610000000    -0.0699253  
C103     C      0.629540000000     0.844390000000     0.090950000000     0.0568048  
C104     C      0.706120000000     0.881410000000     0.093460000000     0.378048   
C105     C      0.789700000000     0.769760000000     0.213400000000     0.0282488  
C106     C      0.724170000000     0.703000000000     0.214950000000    -0.0700832  
C107     C      0.768540000000     0.790260000000     0.238740000000     0.0545972  
C108     C      0.702580000000     0.723700000000     0.239220000000     0.377843   
C109     C      0.563920000000     0.877510000000     0.378380000000     0.027166   
C110     C      0.630670000000     0.943030000000     0.381170000000    -0.0696484  
C111     C      0.543230000000     0.898420000000     0.403790000000     0.0505979  
C112     C      0.609760000000     0.964400000000     0.405560000000     0.376192   
C113     C      0.963170000000     0.511070000000     0.691320000000     0.0229424  
C114     C      0.039610000000     0.547450000000     0.694080000000    -0.0731243  
C115     C      0.962060000000     0.509390000000     0.757140000000     0.0509613  
C116     C      0.038640000000     0.548500000000     0.759860000000     0.374832   
C117     C      0.963440000000     0.452590000000     0.191560000000     0.0277489  
C118     C      0.039880000000     0.492850000000     0.193740000000    -0.0670369  
C119     C      0.962560000000     0.453390000000     0.257370000000     0.0554302  
C120     C      0.039160000000     0.491080000000     0.259550000000     0.383451   
C121     C      0.942510000000     0.630850000000     0.071710000000     0.0241594  
C122     C      0.876540000000     0.564570000000     0.074500000000    -0.0724372  
C123     C      0.963320000000     0.609420000000     0.047280000000     0.0488557  
C124     C      0.896880000000     0.543320000000     0.048990000000     0.376354   
C125     C      0.293100000000     0.121290000000     0.923410000000     0.0284578  
C126     C      0.369410000000     0.155290000000     0.927450000000    -0.0709044  
C127     C      0.294680000000     0.120370000000     0.857680000000     0.0567046  
C128     C      0.371200000000     0.157130000000     0.861620000000     0.380776   
C129     C      0.370990000000     0.213180000000     0.361190000000     0.024273   
C130     C      0.294640000000     0.178700000000     0.358010000000    -0.0721254  
C131     C      0.369750000000     0.213770000000     0.426960000000     0.0503569  
C132     C      0.293210000000     0.176580000000     0.423850000000     0.379691   
C133     C      0.434350000000     0.122250000000     0.572310000000     0.0272788  
C134     C      0.367600000000     0.056720000000     0.570630000000    -0.0682056  
C135     C      0.454940000000     0.101150000000     0.547260000000     0.0528648  
C136     C      0.388430000000     0.035160000000     0.546520000000     0.378055   
C137     C      0.124240000000     0.437930000000     0.878730000000     0.029846   
C138     C      0.058860000000     0.371040000000     0.880940000000    -0.0682468  
C139     C      0.103030000000     0.458400000000     0.904010000000     0.0559303  
C140     C      0.037250000000     0.391680000000     0.905270000000     0.378822   
C141     C      0.231360000000     0.211640000000     0.713310000000     0.0265175  
C142     C      0.298290000000     0.277000000000     0.714060000000    -0.0697001  
C143     C      0.211120000000     0.233020000000     0.738640000000     0.0513787  
C144     C      0.277830000000     0.298820000000     0.738410000000     0.37662    
C145     C      0.488170000000     0.453260000000     0.693150000000     0.0258906  
C146     C      0.453010000000     0.494510000000     0.695380000000    -0.0677272  
C147     C      0.489760000000     0.453900000000     0.758960000000     0.0539252  
C148     C      0.451840000000     0.492590000000     0.761210000000     0.383643   
C149     C      0.507410000000     0.547180000000     0.196330000000     0.029631   
C150     C      0.548580000000     0.511960000000     0.192490000000    -0.0710686  
C151     C      0.509900000000     0.548140000000     0.262040000000     0.057235   
C152     C      0.548470000000     0.510160000000     0.258350000000     0.380104   
C153     C      0.880720000000     0.173800000000     0.922910000000     0.0280385  
C154     C      0.846050000000     0.215500000000     0.926330000000    -0.0676353  
C155     C      0.881710000000     0.176140000000     0.857150000000     0.0542274  
C156     C      0.844320000000     0.215300000000     0.860480000000     0.382995   
C157     C      0.828160000000     0.120800000000     0.422780000000     0.0280888  
C158     C      0.785740000000     0.154710000000     0.426480000000    -0.0677256  
C159     C      0.825770000000     0.119880000000     0.357030000000     0.0544639  
C160     C      0.785900000000     0.156550000000     0.360650000000     0.382526   
C161     C      0.159830000000     0.373490000000     0.590350000000     0.0292372  
C162     C      0.118830000000     0.297130000000     0.594240000000    -0.0666413  
C163     C      0.157470000000     0.371960000000     0.524630000000     0.0555254  
C164     C      0.119050000000     0.295430000000     0.528390000000     0.383497   
C165     C      0.179320000000     0.298800000000     0.093570000000     0.0294502  
C166     C      0.214540000000     0.375180000000     0.091340000000    -0.0681351  
C167     C      0.177660000000     0.297870000000     0.027770000000     0.0559175  
C168     C      0.215620000000     0.374440000000     0.025510000000     0.380788   
C169     C      0.980550000000     0.210870000000     0.211920000000     0.0243933  
C170     C      0.978800000000     0.276140000000     0.213660000000    -0.0692627  
C171     C      0.022160000000     0.232180000000     0.237330000000     0.0518646  
C172     C      0.021020000000     0.297870000000     0.238150000000     0.37799    
C173     C      0.312690000000     0.371960000000     0.381750000000     0.0256491  
C174     C      0.312740000000     0.438130000000     0.379700000000    -0.0734944  
C175     C      0.354960000000     0.393420000000     0.406050000000     0.0516016  
C176     C      0.354420000000     0.459430000000     0.404920000000     0.377442   
C177     C      0.506650000000     0.960460000000     0.694660000000     0.0249798  
C178     C      0.548790000000     0.036770000000     0.691280000000    -0.0727935  
C179     C      0.509210000000     0.961740000000     0.760410000000     0.0511808  
C180     C      0.548860000000     0.038260000000     0.757120000000     0.3788     
C181     C      0.454350000000     0.960430000000     0.194870000000     0.024692   
C182     C      0.488430000000     0.036720000000     0.191060000000    -0.0737651  
C183     C      0.453140000000     0.961890000000     0.260590000000     0.0515848  
C184     C      0.489920000000     0.038400000000     0.256890000000     0.37928    
C185     C      0.688040000000     0.121990000000     0.071940000000     0.0291489  
C186     C      0.689250000000     0.056440000000     0.070220000000    -0.068838   
C187     C      0.646320000000     0.100890000000     0.046970000000     0.0546036  
C188     C      0.646870000000     0.034900000000     0.046190000000     0.377784   
C189     C      0.213370000000     0.842010000000     0.591450000000     0.0296835  
C190     C      0.178260000000     0.883300000000     0.594840000000    -0.0688852  
C191     C      0.214110000000     0.844110000000     0.525690000000     0.0568601  
C192     C      0.176220000000     0.882780000000     0.529000000000     0.382395   
C193     C      0.121310000000     0.827160000000     0.029310000000     0.0245213  
C194     C      0.156170000000     0.785650000000     0.025450000000    -0.0740371  
C195     C      0.120480000000     0.824780000000     0.095050000000     0.0501247  
C196     C      0.158150000000     0.785890000000     0.091280000000     0.377085   
C197     C      0.354400000000     0.897560000000     0.906040000000     0.0236967  
C198     C      0.356000000000     0.964510000000     0.904330000000    -0.0715084  
C199     C      0.312710000000     0.877190000000     0.880920000000     0.0502374  
C200     C      0.313690000000     0.943950000000     0.880160000000     0.376737   
C201     C      0.821780000000     0.703670000000     0.859590000000     0.0226551  
C202     C      0.786830000000     0.627300000000     0.861910000000    -0.0732465  
C203     C      0.823550000000     0.704640000000     0.925360000000     0.0496179  
C204     C      0.785890000000     0.628070000000     0.927750000000     0.374493   
C205     C      0.845650000000     0.631530000000     0.428030000000     0.022351   
C206     C      0.880590000000     0.707900000000     0.425530000000    -0.0721804  
C207     C      0.843820000000     0.630480000000     0.362260000000     0.0500819  
C208     C      0.881500000000     0.707050000000     0.359690000000     0.375641   
C209     C      0.646400000000     0.544380000000     0.547380000000     0.0248302  
C210     C      0.645430000000     0.610050000000     0.549170000000    -0.0703542  
C211     C      0.688160000000     0.565410000000     0.572400000000     0.0488201  
C212     C      0.687720000000     0.631460000000     0.573320000000     0.376318   
C213     C      0.979360000000     0.704530000000     0.715640000000     0.0232989  
C214     C      0.979230000000     0.770620000000     0.714130000000    -0.0743973  
C215     C      0.021690000000     0.726040000000     0.739740000000     0.0477565  
C216     C      0.020950000000     0.791960000000     0.739190000000     0.375916   
Cu1      Cu     0.836550000000     0.703500000000     0.638620000000     0.881869   
Cu2      Cu     0.830990000000     0.631850000000     0.648920000000     0.855155   
Cu3      Cu     0.164500000000     0.867680000000     0.815980000000     0.893587   
Cu4      Cu     0.169960000000     0.801620000000     0.804570000000     0.863062   
Cu5      Cu     0.503900000000     0.035180000000     0.970540000000     0.881426   
Cu6      Cu     0.497510000000     0.963220000000     0.981490000000     0.872263   
Cu7      Cu     0.169930000000     0.370720000000     0.304030000000     0.889004   
Cu8      Cu     0.164570000000     0.299190000000     0.314720000000     0.877068   
Cu9      Cu     0.831050000000     0.199020000000     0.147160000000     0.881465   
Cu10     Cu     0.837450000000     0.133440000000     0.136120000000     0.8669     
Cu11     Cu     0.497810000000     0.534750000000     0.482720000000     0.895185   
Cu12     Cu     0.502900000000     0.468430000000     0.472000000000     0.864179   
Cu13     Cu     0.135510000000     0.299750000000     0.815280000000     0.863928   
Cu14     Cu     0.201130000000     0.371520000000     0.803230000000     0.899018   
Cu15     Cu     0.296590000000     0.133940000000     0.636970000000     0.88548    
Cu16     Cu     0.368620000000     0.199440000000     0.647860000000     0.871362   
Cu17     Cu     0.964550000000     0.467980000000     0.970090000000     0.894544   
Cu18     Cu     0.036040000000     0.533980000000     0.981620000000     0.878563   
Cu19     Cu     0.630370000000     0.800950000000     0.302930000000     0.892148   
Cu20     Cu     0.702230000000     0.866320000000     0.315870000000     0.87537    
Cu21     Cu     0.800870000000     0.631620000000     0.150150000000     0.882904   
Cu22     Cu     0.866490000000     0.703350000000     0.137390000000     0.871812   
Cu23     Cu     0.466340000000     0.963640000000     0.481470000000     0.87248    
Cu24     Cu     0.531780000000     0.035650000000     0.470640000000     0.892131   
Cu25     Cu     0.367530000000     0.169930000000     0.148080000000     0.86197    
Cu26     Cu     0.295960000000     0.164380000000     0.136880000000     0.89226    
Cu27     Cu     0.531890000000     0.497920000000     0.971430000000     0.862999   
Cu28     Cu     0.466000000000     0.503690000000     0.983560000000     0.891834   
Cu29     Cu     0.200410000000     0.831760000000     0.304730000000     0.889655   
Cu30     Cu     0.133860000000     0.836380000000     0.315880000000     0.879935   
Cu31     Cu     0.036730000000     0.503220000000     0.481670000000     0.889246   
Cu32     Cu     0.965050000000     0.497460000000     0.469950000000     0.853294   
Cu33     Cu     0.868240000000     0.164130000000     0.636130000000     0.895454   
Cu34     Cu     0.802190000000     0.169660000000     0.647160000000     0.877342   
Cu35     Cu     0.701730000000     0.835930000000     0.814660000000     0.863576   
Cu36     Cu     0.630660000000     0.831680000000     0.804210000000     0.880824   
F1       F      0.835510000000     0.038800000000     0.703430000000    -0.434309   
F2       F      0.969340000000     0.294790000000     0.583680000000    -0.42835    
F3       F      0.168870000000     0.706820000000     0.372700000000    -0.427185   
F4       F      0.537280000000     0.707130000000     0.873580000000    -0.43038    
F5       F      0.203430000000     0.039350000000     0.204620000000    -0.430015   
F6       F      0.325280000000     0.295000000000     0.084990000000    -0.434377   
F7       F      0.587950000000     0.768740000000     0.494090000000    -0.432795   
F8       F      0.744570000000     0.898790000000     0.124670000000    -0.437749   
F9       F      0.659440000000     0.699060000000     0.251280000000    -0.431447   
F10      F      0.634270000000     0.007440000000     0.418290000000    -0.430269   
F11      F      0.077130000000     0.567130000000     0.791140000000    -0.436934   
F12      F      0.077740000000     0.511140000000     0.290550000000    -0.427437   
F13      F      0.872110000000     0.499850000000     0.039590000000    -0.43208    
F14      F      0.410680000000     0.175280000000     0.833220000000    -0.433659   
F15      F      0.253860000000     0.158090000000     0.452700000000    -0.428711   
F16      F      0.363900000000     0.992030000000     0.534500000000    -0.432693   
F17      F      0.994180000000     0.366910000000     0.917700000000    -0.429063   
F18      F      0.302640000000     0.341980000000     0.750070000000    -0.428683   
F19      F      0.433830000000     0.513100000000     0.792290000000    -0.425937   
F20      F      0.569170000000     0.491380000000     0.286890000000    -0.435904   
F21      F      0.825890000000     0.236280000000     0.831750000000    -0.428785   
F22      F      0.764560000000     0.174640000000     0.332070000000    -0.430078   
F23      F      0.098470000000     0.255970000000     0.499880000000    -0.428181   
F24      F      0.233640000000     0.412970000000     0.994440000000    -0.430437   
F25      F      0.039210000000     0.340950000000     0.250400000000    -0.427793   
F26      F      0.372990000000     0.502850000000     0.414680000000    -0.430705   
F27      F      0.570210000000     0.077610000000     0.785860000000    -0.431949   
F28      F      0.507930000000     0.077820000000     0.285410000000    -0.433459   
F29      F      0.628280000000     0.991760000000     0.034180000000    -0.435029   
F30      F      0.157400000000     0.903370000000     0.500230000000    -0.42733    
F31      F      0.176830000000     0.765100000000     0.119800000000    -0.430763   
F32      F      0.295380000000     0.968760000000     0.868050000000    -0.432697   
F33      F      0.768090000000     0.589580000000     0.958900000000    -0.435785   
F34      F      0.899270000000     0.745490000000     0.328440000000    -0.436114   
F35      F      0.706300000000     0.674590000000     0.585420000000    -0.434419   
F36      F      0.039420000000     0.835350000000     0.749140000000    -0.43227    
H1       H      0.707610000000     0.037510000000     0.703730000000     0.0507293  
H2       H      0.670160000000     0.964540000000     0.745580000000     0.054007   
H3       H      0.789570000000     0.963350000000     0.747970000000     0.105311   
H4       H      0.843170000000     0.296750000000     0.577970000000     0.0500392  
H5       H      0.878550000000     0.368610000000     0.535530000000     0.0515592  
H6       H      0.999950000000     0.371430000000     0.539230000000     0.108142   
H7       H      0.040080000000     0.703680000000     0.371280000000     0.0469027  
H8       H      0.003110000000     0.630480000000     0.412460000000     0.04835    
H9       H      0.123400000000     0.631070000000     0.416420000000     0.115139   
H10      H      0.662650000000     0.703460000000     0.870920000000     0.0460855  
H11      H      0.626560000000     0.630570000000     0.913080000000     0.053138   
H12      H      0.507110000000     0.631620000000     0.918300000000     0.115679   
H13      H      0.329780000000     0.037540000000     0.204460000000     0.0478281  
H14      H      0.294130000000     0.964610000000     0.246500000000     0.0546275  
H15      H      0.173800000000     0.963940000000     0.249370000000     0.111571   
H16      H      0.453520000000     0.297210000000     0.079090000000     0.046929   
H17      H      0.489850000000     0.369140000000     0.036880000000     0.0533545  
H18      H      0.371160000000     0.371720000000     0.040760000000     0.109145   
H19      H      0.734310000000     0.838230000000     0.504800000000     0.0474161  
H20      H      0.732500000000     0.835670000000     0.618820000000     0.0539484  
H21      H      0.594300000000     0.773300000000     0.614580000000     0.107511   
H22      H      0.598190000000     0.829050000000     0.114160000000     0.0480387  
H23      H      0.599930000000     0.831770000000     0.000150000000     0.0599348  
H24      H      0.738140000000     0.894400000000     0.004190000000     0.102215   
H25      H      0.787800000000     0.824880000000     0.246970000000     0.0548948  
H26      H      0.824160000000     0.789510000000     0.204210000000     0.0604049  
H27      H      0.705430000000     0.668350000000     0.206640000000     0.10645    
H28      H      0.508550000000     0.879060000000     0.411540000000     0.0476351  
H29      H      0.544220000000     0.843120000000     0.368660000000     0.0599914  
H30      H      0.665370000000     0.961820000000     0.373330000000     0.105073   
H31      H      0.930680000000     0.493280000000     0.780250000000     0.0469632  
H32      H      0.932570000000     0.495580000000     0.666120000000     0.0482748  
H33      H      0.070920000000     0.562100000000     0.670800000000     0.102941   
H34      H      0.931260000000     0.438100000000     0.280700000000     0.0450891  
H35      H      0.932740000000     0.437310000000     0.166590000000     0.0587097  
H36      H      0.071100000000     0.509500000000     0.170230000000     0.109729   
H37      H      0.997750000000     0.628540000000     0.037480000000     0.0474152  
H38      H      0.961710000000     0.665500000000     0.079650000000     0.0509388  
H39      H      0.842120000000     0.545250000000     0.084370000000     0.112842   
H40      H      0.264270000000     0.106500000000     0.832080000000     0.0470069  
H41      H      0.261630000000     0.107540000000     0.946010000000     0.0555303  
H42      H      0.399780000000     0.169540000000     0.953230000000     0.103044   
H43      H      0.400320000000     0.227730000000     0.452200000000     0.0421412  
H44      H      0.402370000000     0.227240000000     0.338230000000     0.0502712  
H45      H      0.264140000000     0.164350000000     0.332570000000     0.112513   
H46      H      0.489590000000     0.120480000000     0.539180000000     0.050737   
H47      H      0.454100000000     0.156710000000     0.581490000000     0.0552334  
H48      H      0.332940000000     0.037990000000     0.578830000000     0.109697   
H49      H      0.122190000000     0.493060000000     0.911960000000     0.0570948  
H50      H      0.158660000000     0.457740000000     0.869240000000     0.0634187  
H51      H      0.040200000000     0.336350000000     0.872920000000     0.106233   
H52      H      0.176510000000     0.213890000000     0.747200000000     0.0481882  
H53      H      0.211440000000     0.177160000000     0.704420000000     0.0568735  
H54      H      0.332910000000     0.295570000000     0.705410000000     0.103739   
H55      H      0.505350000000     0.438160000000     0.782270000000     0.0432964  
H56      H      0.503210000000     0.437600000000     0.668190000000     0.0484722  
H57      H      0.438910000000     0.511620000000     0.671880000000     0.111392   
H58      H      0.493810000000     0.562530000000     0.287530000000     0.0557757  
H59      H      0.490160000000     0.561430000000     0.173630000000     0.0562509  
H60      H      0.564220000000     0.497190000000     0.166780000000     0.102974   
H61      H      0.895880000000     0.159780000000     0.831790000000     0.0513907  
H62      H      0.894730000000     0.156380000000     0.945760000000     0.0514122  
H63      H      0.831510000000     0.231420000000     0.951850000000     0.1078     
H64      H      0.842400000000     0.106050000000     0.331550000000     0.0451145  
H65      H      0.845870000000     0.107090000000     0.445520000000     0.0557844  
H66      H      0.769540000000     0.168930000000     0.452120000000     0.1069     
H67      H      0.173520000000     0.402430000000     0.499130000000     0.0489103  
H68      H      0.176970000000     0.404970000000     0.613030000000     0.0550923  
H69      H      0.103230000000     0.266740000000     0.619970000000     0.107332   
H70      H      0.162040000000     0.266560000000     0.004460000000     0.0453164  
H71      H      0.164290000000     0.268110000000     0.118540000000     0.0531783  
H72      H      0.228700000000     0.406380000000     0.114830000000     0.107172   
H73      H      0.037730000000     0.213080000000     0.245520000000     0.0491546  
H74      H      0.966070000000     0.176450000000     0.202570000000     0.0520286  
H75      H      0.962690000000     0.294720000000     0.205390000000     0.107015   
H76      H      0.370370000000     0.374330000000     0.415510000000     0.0463043  
H77      H      0.297340000000     0.337330000000     0.373580000000     0.0560659  
H78      H      0.297510000000     0.457390000000     0.370190000000     0.108966   
H79      H      0.492740000000     0.931230000000     0.785750000000     0.0437068  
H80      H      0.488980000000     0.929090000000     0.671800000000     0.0511116  
H81      H      0.564840000000     0.067240000000     0.665800000000     0.105527   
H82      H      0.439150000000     0.931450000000     0.286110000000     0.0445723  
H83      H      0.440670000000     0.929000000000     0.172180000000     0.0513357  
H84      H      0.502800000000     0.067130000000     0.165400000000     0.10364    
H85      H      0.630980000000     0.120210000000     0.038940000000     0.0525411  
H86      H      0.702760000000     0.156450000000     0.081110000000     0.0590299  
H87      H      0.705200000000     0.037700000000     0.078370000000     0.105807   
H88      H      0.228380000000     0.827840000000     0.500350000000     0.0531975  
H89      H      0.227640000000     0.824850000000     0.614340000000     0.0538339  
H90      H      0.163610000000     0.899120000000     0.620370000000     0.112664   
H91      H      0.106280000000     0.841030000000     0.120600000000     0.0456771  
H92      H      0.107170000000     0.844510000000     0.006620000000     0.053533   
H93      H      0.170750000000     0.769830000000     0.999730000000     0.103435   
H94      H      0.297180000000     0.842530000000     0.872810000000     0.0470184  
H95      H      0.368980000000     0.877670000000     0.915260000000     0.0521837  
H96      H      0.372070000000     0.999180000000     0.912520000000     0.106611   
H97      H      0.839110000000     0.735970000000     0.948620000000     0.0426798  
H98      H      0.836640000000     0.734340000000     0.834610000000     0.0507343  
H99      H      0.772740000000     0.596090000000     0.838460000000     0.101752   
H100     H      0.828250000000     0.599120000000     0.339090000000     0.0423586  
H101     H      0.830800000000     0.600880000000     0.453090000000     0.0471432  
H102     H      0.894680000000     0.739130000000     0.448910000000     0.105135   
H103     H      0.703490000000     0.546070000000     0.580450000000     0.0434893  
H104     H      0.631560000000     0.509920000000     0.538120000000     0.052153   
H105     H      0.629610000000     0.628910000000     0.541050000000     0.109387   
H106     H      0.037210000000     0.707030000000     0.748910000000     0.0455085  
H107     H      0.964050000000     0.669930000000     0.707310000000     0.0485076  
H108     H      0.963930000000     0.789850000000     0.704920000000     0.107189   
N1       N      0.726910000000     0.958230000000     0.750190000000    -0.151836   
N2       N      0.770150000000     0.042330000000     0.700830000000    -0.220937   
N3       N      0.942080000000     0.375710000000     0.533900000000    -0.151516   
N4       N      0.900720000000     0.291550000000     0.582940000000    -0.219636   
N5       N      0.060330000000     0.625040000000     0.417800000000    -0.150765   
N6       N      0.103010000000     0.709370000000     0.369190000000    -0.220359   
N7       N      0.564030000000     0.625380000000     0.919120000000    -0.150024   
N8       N      0.605530000000     0.709380000000     0.869350000000    -0.221191   
N9       N      0.231190000000     0.958560000000     0.251360000000    -0.15011    
N10      N      0.272190000000     0.042600000000     0.201720000000    -0.220838   
N11      N      0.433360000000     0.376130000000     0.035350000000    -0.151345   
N12      N      0.390730000000     0.291880000000     0.084120000000    -0.221324   
N13      N      0.663290000000     0.805560000000     0.625070000000    -0.151176   
N14      N      0.665290000000     0.806430000000     0.493940000000    -0.221718   
N15      N      0.669140000000     0.862010000000     0.993800000000    -0.151039   
N16      N      0.667220000000     0.860950000000     0.124920000000    -0.222118   
N17      N      0.767650000000     0.726110000000     0.201890000000    -0.150672   
N18      N      0.724940000000     0.767490000000     0.251280000000    -0.219646   
N19      N      0.607670000000     0.899650000000     0.367470000000    -0.150921   
N20      N      0.565880000000     0.941900000000     0.417060000000    -0.220752   
N21      N      0.001910000000     0.527770000000     0.660150000000    -0.153167   
N22      N      0.999750000000     0.527170000000     0.791250000000    -0.222278   
N23      N      0.002040000000     0.474640000000     0.160080000000    -0.150253   
N24      N      0.000370000000     0.473580000000     0.291200000000    -0.222043   
N25      N      0.899120000000     0.608300000000     0.085430000000    -0.150946   
N26      N      0.940500000000     0.565680000000     0.035560000000    -0.22137    
N27      N      0.330550000000     0.139760000000     0.958010000000    -0.151063   
N28      N      0.333750000000     0.140670000000     0.826960000000    -0.222207   
N29      N      0.333370000000     0.194560000000     0.326990000000    -0.151282   
N30      N      0.330860000000     0.193070000000     0.458070000000    -0.22356    
N31      N      0.390650000000     0.100200000000     0.583670000000    -0.150459   
N32      N      0.432270000000     0.057570000000     0.534680000000    -0.21988    
N33      N      0.102290000000     0.394220000000     0.867550000000    -0.150303   
N34      N      0.059500000000     0.435530000000     0.916960000000    -0.219118   
N35      N      0.274970000000     0.233480000000     0.701360000000    -0.151269   
N36      N      0.234080000000     0.276650000000     0.750840000000    -0.2203     
N37      N      0.472160000000     0.475820000000     0.661690000000    -0.151346   
N38      N      0.472570000000     0.474460000000     0.792820000000    -0.221554   
N39      N      0.525780000000     0.528070000000     0.161850000000    -0.151632   
N40      N      0.528010000000     0.527240000000     0.292880000000    -0.221533   
N41      N      0.861840000000     0.192500000000     0.957200000000    -0.151426   
N42      N      0.861110000000     0.194490000000     0.826130000000    -0.221438   
N43      N      0.809090000000     0.139250000000     0.457210000000    -0.15042    
N44      N      0.807020000000     0.140150000000     0.326150000000    -0.222561   
N45      N      0.141500000000     0.336020000000     0.624860000000    -0.150633   
N46      N      0.139490000000     0.332970000000     0.493820000000    -0.221531   
N47      N      0.195390000000     0.337360000000     0.125030000000    -0.150802   
N48      N      0.194840000000     0.335630000000     0.993890000000    -0.22159    
N49      N      0.958700000000     0.232710000000     0.200440000000    -0.151831   
N50      N      0.042700000000     0.275720000000     0.250130000000    -0.219726   
N51      N      0.291710000000     0.394440000000     0.368470000000    -0.150802   
N52      N      0.375810000000     0.437130000000     0.417910000000    -0.221244   
N53      N      0.525460000000     0.998050000000     0.660410000000    -0.151596   
N54      N      0.527910000000     0.000660000000     0.791460000000    -0.222972   
N55      N      0.473030000000     0.997930000000     0.160400000000    -0.152056   
N56      N      0.473310000000     0.000900000000     0.291450000000    -0.222715   
N57      N      0.709680000000     0.099920000000     0.083230000000    -0.150406   
N58      N      0.625420000000     0.057300000000     0.034420000000    -0.219876   
N59      N      0.194420000000     0.860640000000     0.625730000000    -0.15049    
N60      N      0.193150000000     0.862080000000     0.494680000000    -0.221545   
N61      N      0.140140000000     0.808520000000     0.994800000000    -0.152265   
N62      N      0.141260000000     0.806520000000     0.125840000000    -0.223313   
N63      N      0.376200000000     0.941240000000     0.917430000000    -0.152036   
N64      N      0.292040000000     0.900120000000     0.868340000000    -0.221043   
N65      N      0.805790000000     0.665110000000     0.828170000000    -0.152712   
N66      N      0.806610000000     0.666920000000     0.959280000000    -0.223479   
N67      N      0.861660000000     0.670130000000     0.459360000000    -0.15271    
N68      N      0.860770000000     0.668150000000     0.328260000000    -0.223244   
N69      N      0.624890000000     0.566580000000     0.536100000000    -0.150958   
N70      N      0.709110000000     0.608990000000     0.585050000000    -0.221568   
N71      N      0.958270000000     0.726960000000     0.702680000000    -0.152225   
N72      N      0.042480000000     0.769740000000     0.751770000000    -0.22148    
O1       O      0.772950000000     0.670590000000     0.612510000000    -0.351286   
O2       O      0.898900000000     0.729190000000     0.665820000000    -0.389915   
O3       O      0.854170000000     0.702880000000     0.547670000000    -0.381945   
O4       O      0.819820000000     0.697840000000     0.731040000000    -0.386439   
O5       O      0.813280000000     0.632410000000     0.739810000000    -0.385917   
O6       O      0.847800000000     0.637530000000     0.556550000000    -0.391433   
O7       O      0.894790000000     0.664920000000     0.675300000000    -0.386915   
O8       O      0.768470000000     0.606190000000     0.621450000000    -0.397274   
O9       O      0.102040000000     0.831180000000     0.789230000000    -0.353789   
O10      O      0.228230000000     0.898240000000     0.841520000000    -0.350846   
O11      O      0.180820000000     0.879040000000     0.723400000000    -0.375759   
O12      O      0.147280000000     0.849140000000     0.907010000000    -0.383402   
O13      O      0.153500000000     0.790130000000     0.897020000000    -0.386183   
O14      O      0.187350000000     0.820200000000     0.713660000000    -0.386938   
O15      O      0.232550000000     0.838280000000     0.831660000000    -0.39565    
O16      O      0.106080000000     0.771140000000     0.778650000000    -0.390965   
O17      O      0.440180000000     0.002660000000     0.944420000000    -0.382595   
O18      O      0.566300000000     0.060340000000     0.997810000000    -0.389535   
O19      O      0.521330000000     0.034060000000     0.879700000000    -0.355511   
O20      O      0.487210000000     0.030060000000     0.062850000000    -0.387927   
O21      O      0.480230000000     0.964500000000     0.072540000000    -0.385295   
O22      O      0.513980000000     0.968340000000     0.888930000000    -0.391421   
O23      O      0.561300000000     0.995750000000     0.007340000000    -0.349457   
O24      O      0.435060000000     0.937970000000     0.954430000000    -0.392429   
O25      O      0.232300000000     0.396590000000     0.331440000000    -0.388614   
O26      O      0.106310000000     0.337590000000     0.277720000000    -0.346612   
O27      O      0.153090000000     0.365160000000     0.396360000000    -0.388308   
O28      O      0.187690000000     0.370050000000     0.213210000000    -0.381587   
O29      O      0.181370000000     0.304730000000     0.222280000000    -0.386087   
O30      O      0.146880000000     0.299920000000     0.405660000000    -0.354485   
O31      O      0.102080000000     0.273330000000     0.287250000000    -0.389417   
O32      O      0.228320000000     0.332390000000     0.341060000000    -0.382086   
O33      O      0.768670000000     0.161940000000     0.119980000000    -0.382605   
O34      O      0.894740000000     0.230150000000     0.173220000000    -0.381929   
O35      O      0.847690000000     0.210550000000     0.054730000000    -0.38337    
O36      O      0.813660000000     0.180370000000     0.238070000000    -0.356485   
O37      O      0.820930000000     0.121960000000     0.228590000000    -0.392848   
O38      O      0.854810000000     0.152050000000     0.045170000000    -0.387815   
O39      O      0.899910000000     0.170600000000     0.163310000000    -0.391335   
O40      O      0.773650000000     0.102280000000     0.110140000000    -0.380326   
O41      O      0.561400000000     0.564970000000     0.508940000000    -0.380662   
O42      O      0.435440000000     0.498530000000     0.455350000000    -0.352348   
O43      O      0.480030000000     0.516340000000     0.573550000000    -0.381408   
O44      O      0.514600000000     0.545970000000     0.390350000000    -0.385552   
O45      O      0.520610000000     0.486830000000     0.381070000000    -0.357514   
O46      O      0.486120000000     0.457200000000     0.564440000000    -0.389585   
O47      O      0.439130000000     0.438240000000     0.445660000000    -0.391096   
O48      O      0.565470000000     0.504780000000     0.499410000000    -0.384451   
O49      O      0.104590000000     0.332620000000     0.840890000000    -0.381824   
O50      O      0.172400000000     0.274150000000     0.788380000000    -0.396856   
O51      O      0.154430000000     0.301550000000     0.906220000000    -0.393923   
O52      O      0.123690000000     0.304280000000     0.722750000000    -0.382377   
O53      O      0.182150000000     0.369840000000     0.712420000000    -0.385087   
O54      O      0.213000000000     0.366950000000     0.895650000000    -0.348167   
O55      O      0.232000000000     0.338560000000     0.777440000000    -0.346982   
O56      O      0.164240000000     0.397170000000     0.830340000000    -0.381043   
O57      O      0.271490000000     0.171250000000     0.664390000000    -0.383706   
O58      O      0.329100000000     0.102660000000     0.610730000000    -0.377564   
O59      O      0.301740000000     0.122410000000     0.729340000000    -0.392139   
O60      O      0.297680000000     0.152600000000     0.546110000000    -0.354637   
O61      O      0.363390000000     0.210940000000     0.555420000000    -0.397007   
O62      O      0.367410000000     0.180800000000     0.738820000000    -0.357107   
O63      O      0.393780000000     0.162230000000     0.620610000000    -0.384807   
O64      O      0.336250000000     0.230760000000     0.673970000000    -0.383752   
O65      O      0.997690000000     0.437440000000     0.944350000000    -0.348424   
O66      O      0.938580000000     0.504440000000     0.997130000000    -0.354643   
O67      O      0.965940000000     0.486660000000     0.879040000000    -0.387519   
O68      O      0.969540000000     0.456480000000     0.062680000000    -0.377963   
O69      O      0.035060000000     0.515120000000     0.072200000000    -0.383458   
O70      O      0.030950000000     0.545770000000     0.889460000000    -0.35652    
O71      O      0.002670000000     0.564380000000     0.008150000000    -0.390441   
O72      O      0.061970000000     0.497400000000     0.953880000000    -0.385433   
O73      O      0.604840000000     0.837930000000     0.329710000000    -0.383465   
O74      O      0.663180000000     0.769900000000     0.277570000000    -0.348884   
O75      O      0.634310000000     0.788760000000     0.395430000000    -0.349911   
O76      O      0.632720000000     0.820250000000     0.212120000000    -0.392594   
O77      O      0.698240000000     0.878550000000     0.223400000000    -0.355079   
O78      O      0.699890000000     0.847000000000     0.406670000000    -0.394101   
O79      O      0.727720000000     0.829290000000     0.288940000000    -0.388442   
O80      O      0.669420000000     0.897390000000     0.341370000000    -0.382746   
O81      O      0.837690000000     0.605970000000     0.123360000000    -0.381812   
O82      O      0.769930000000     0.664470000000     0.175550000000    -0.382436   
O83      O      0.788800000000     0.635770000000     0.057670000000    -0.355317   
O84      O      0.820070000000     0.633810000000     0.240980000000    -0.394283   
O85      O      0.878620000000     0.699170000000     0.229810000000    -0.356191   
O86      O      0.847240000000     0.701220000000     0.046620000000    -0.395973   
O87      O      0.829550000000     0.729000000000     0.164450000000    -0.381746   
O88      O      0.897400000000     0.670340000000     0.111710000000    -0.385804   
O89      O      0.503730000000     0.938620000000     0.454220000000    -0.398182   
O90      O      0.434930000000     0.996040000000     0.507500000000    -0.349077   
O91      O      0.454900000000     0.968770000000     0.389000000000    -0.391558   
O92      O      0.484900000000     0.964800000000     0.572440000000    -0.385529   
O93      O      0.543330000000     0.030450000000     0.563000000000    -0.3837     
O94      O      0.513220000000     0.034490000000     0.379720000000    -0.353497   
O95      O      0.494420000000     0.060680000000     0.497910000000    -0.391034   
O96      O      0.563160000000     0.003310000000     0.444540000000    -0.34867    
O97      O      0.334230000000     0.106130000000     0.174330000000    -0.389597   
O98      O      0.393360000000     0.232480000000     0.120680000000    -0.396095   
O99      O      0.366550000000     0.187490000000     0.238900000000    -0.387129   
O100     O      0.362390000000     0.153250000000     0.055740000000    -0.386018   
O101     O      0.297150000000     0.147050000000     0.045840000000    -0.382944   
O102     O      0.301110000000     0.180850000000     0.229440000000    -0.376998   
O103     O      0.329000000000     0.228050000000     0.111150000000    -0.352274   
O104     O      0.270070000000     0.101970000000     0.163870000000    -0.352708   
O105     O      0.495210000000     0.435330000000     0.998360000000    -0.389524   
O106     O      0.562510000000     0.561780000000     0.945740000000    -0.383349   
O107     O      0.543660000000     0.514250000000     0.063960000000    -0.384639   
O108     O      0.512980000000     0.480790000000     0.880510000000    -0.393946   
O109     O      0.454250000000     0.487400000000     0.891090000000    -0.348815   
O110     O      0.484920000000     0.520930000000     0.074380000000    -0.387198   
O111     O      0.502570000000     0.566160000000     0.956660000000    -0.378939   
O112     O      0.435390000000     0.439960000000     0.009130000000    -0.380463   
O113     O      0.230410000000     0.895440000000     0.278590000000    -0.384356   
O114     O      0.164370000000     0.769260000000     0.332010000000    -0.345929   
O115     O      0.181910000000     0.814080000000     0.213820000000    -0.355362   
O116     O      0.211710000000     0.848470000000     0.397180000000    -0.387607   
O117     O      0.152360000000     0.854120000000     0.406730000000    -0.355744   
O118     O      0.122550000000     0.819710000000     0.223470000000    -0.395333   
O119     O      0.103930000000     0.772650000000     0.342030000000    -0.390095   
O120     O      0.169900000000     0.898900000000     0.288550000000    -0.380226   
O121     O      0.062540000000     0.565630000000     0.454610000000    -0.38028    
O122     O      0.003740000000     0.439550000000     0.507490000000    -0.381961   
O123     O      0.031860000000     0.486690000000     0.389310000000    -0.350674   
O124     O      0.035320000000     0.520630000000     0.572420000000    -0.386322   
O125     O      0.969780000000     0.513740000000     0.562530000000    -0.391043   
O126     O      0.966620000000     0.480330000000     0.378960000000    -0.394095   
O127     O      0.939240000000     0.434840000000     0.496850000000    -0.390288   
O128     O      0.998240000000     0.561370000000     0.444310000000    -0.386642   
O129     O      0.898780000000     0.227790000000     0.610240000000    -0.348266   
O130     O      0.831730000000     0.101720000000     0.663230000000    -0.354323   
O131     O      0.849750000000     0.146690000000     0.545130000000    -0.381655   
O132     O      0.879560000000     0.180690000000     0.728650000000    -0.385329   
O133     O      0.820770000000     0.187330000000     0.737980000000    -0.355397   
O134     O      0.790690000000     0.152870000000     0.554830000000    -0.384037   
O135     O      0.771740000000     0.105920000000     0.673500000000    -0.388454   
O136     O      0.838810000000     0.232150000000     0.619660000000    -0.388808   
O137     O      0.667820000000     0.772320000000     0.841180000000    -0.391344   
O138     O      0.728340000000     0.898400000000     0.787110000000    -0.388464   
O139     O      0.701490000000     0.853910000000     0.905510000000    -0.385612   
O140     O      0.695820000000     0.819000000000     0.722310000000    -0.385796   
O141     O      0.630920000000     0.813710000000     0.713330000000    -0.38256    
O142     O      0.636570000000     0.848600000000     0.896580000000    -0.381153   
O143     O      0.664510000000     0.895300000000     0.777750000000    -0.385749   
O144     O      0.604080000000     0.769220000000     0.831810000000    -0.351263   


