data_structure

_audit_creation_method RASPA-1.0
_audit_creation_date 2023-5-23
_audit_author_name 'Poobodin Mano'

_cell_length_a    43.4757
_cell_length_b    43.4761
_cell_length_c    32.5282
_cell_angle_alpha 90
_cell_angle_beta  90
_cell_angle_gamma 120.001
_cell_volume      53245.6

_symmetry_cell_setting          triclinic
_symmetry_space_group_name_Hall 'P 1'
_symmetry_space_group_name_H-M  'P 1'
_symmetry_Int_Tables_number     1

_symmetry_equiv_pos_as_xyz 'x,y,z'

loop_
_atom_site_label
_atom_site_type_symbol
_atom_site_fract_x
_atom_site_fract_y
_atom_site_fract_z
_atom_site_charge
C1       C      0.509350000000     0.506250000000     0.258890000000     0.404878   
C2       C      0.009360000000     0.006250000000     0.422600000000     0.392782   
C3       C      0.448030000000     0.444910000000     0.340760000000     0.404197   
C4       C      0.070690000000     0.067580000000     0.340740000000     0.404433   
C5       C      0.509380000000     0.256230000000     0.258910000000     0.404839   
C6       C      0.509390000000     0.256260000000     0.422630000000     0.405018   
C7       C      0.070720000000     0.317580000000     0.340760000000     0.404422   
C8       C      0.448060000000     0.194910000000     0.340780000000     0.404049   
C9       C      0.259400000000     0.006270000000     0.258880000000     0.404687   
C10      C      0.259370000000     0.006230000000     0.422600000000     0.404679   
C11      C      0.198060000000     0.444910000000     0.340740000000     0.403929   
C12      C      0.320720000000     0.067580000000     0.340770000000     0.404037   
C13      C      0.259360000000     0.256250000000     0.422630000000     0.404874   
C14      C      0.259370000000     0.256240000000     0.258910000000     0.404982   
C15      C      0.198030000000     0.194920000000     0.340770000000     0.404004   
C16      C      0.320690000000     0.317580000000     0.340770000000     0.404008   
C17      C      0.509370000000     0.006270000000     0.089270000000     0.404418   
C18      C      0.509390000000     0.006280000000     0.925540000000     0.404351   
C19      C      0.070710000000     0.006280000000     0.007420000000     0.404137   
C20      C      0.448050000000     0.006280000000     0.007390000000     0.403359   
C21      C      0.009380000000     0.256220000000     0.089300000000     0.393227   
C22      C      0.509390000000     0.256230000000     0.925580000000     0.404717   
C23      C      0.070720000000     0.256220000000     0.007440000000     0.404118   
C24      C      0.448060000000     0.256220000000     0.007430000000     0.403821   
C25      C      0.259400000000     0.006280000000     0.089270000000     0.404476   
C26      C      0.259370000000     0.006270000000     0.925540000000     0.40435    
C27      C      0.198050000000     0.006280000000     0.007420000000     0.403474   
C28      C      0.320710000000     0.006280000000     0.007390000000     0.403735   
C29      C      0.259390000000     0.256230000000     0.089300000000     0.404774   
C30      C      0.259380000000     0.256220000000     0.925580000000     0.404913   
C31      C      0.320720000000     0.256220000000     0.007440000000     0.403743   
C32      C      0.198060000000     0.256220000000     0.007440000000     0.403769   
C33      C      0.509400000000     0.444940000000     0.674100000000     0.40402    
C34      C      0.509400000000     0.067600000000     0.674070000000     0.404083   
C35      C      0.509390000000     0.006270000000     0.592210000000     0.404513   
C36      C      0.509400000000     0.006270000000     0.755930000000     0.404548   
C37      C      0.509400000000     0.194940000000     0.674090000000     0.40402    
C38      C      0.509400000000     0.317600000000     0.674110000000     0.404156   
C39      C      0.509400000000     0.256280000000     0.592240000000     0.404876   
C40      C      0.509400000000     0.256260000000     0.755970000000     0.404856   
C41      C      0.259360000000     0.444900000000     0.674110000000     0.404034   
C42      C      0.259350000000     0.067560000000     0.674060000000     0.403982   
C43      C      0.259360000000     0.006220000000     0.592210000000     0.404729   
C44      C      0.259360000000     0.006240000000     0.755930000000     0.404836   
C45      C      0.259360000000     0.194900000000     0.674090000000     0.404036   
C46      C      0.259360000000     0.317560000000     0.674120000000     0.404126   
C47      C      0.259350000000     0.256240000000     0.592240000000     0.40511    
C48      C      0.259360000000     0.256220000000     0.755970000000     0.40494    
C49      C      0.290680000000     0.412950000000     0.674230000000     0.0301706  
C50      C      0.228040000000     0.381630000000     0.674020000000     0.0301688  
C51      C      0.228040000000     0.349520000000     0.674230000000     0.0301563  
C52      C      0.290680000000     0.380830000000     0.674020000000     0.0301904  
C53      C      0.290680000000     0.130830000000     0.673960000000     0.030201   
C54      C      0.228040000000     0.099510000000     0.674170000000     0.0301734  
C55      C      0.228040000000     0.131630000000     0.673970000000     0.0301598  
C56      C      0.290680000000     0.162950000000     0.674180000000     0.0301601  
C57      C      0.478080000000     0.381670000000     0.674000000000     0.0301751  
C58      C      0.540720000000     0.412990000000     0.674220000000     0.0301639  
C59      C      0.540720000000     0.380870000000     0.674010000000     0.0301823  
C60      C      0.478080000000     0.349550000000     0.674220000000     0.0301843  
C61      C      0.540720000000     0.130870000000     0.673970000000     0.0301556  
C62      C      0.478080000000     0.099550000000     0.674180000000     0.0301781  
C63      C      0.478080000000     0.131670000000     0.673980000000     0.0301694  
C64      C      0.540720000000     0.162990000000     0.674190000000     0.0301525  
C65      C      0.286190000000     0.283690000000     0.862220000000     0.031551   
C66      C      0.232560000000     0.228740000000     0.862230000000     0.0314818  
C67      C      0.231890000000     0.229410000000     0.819320000000     0.0314611  
C68      C      0.286850000000     0.283030000000     0.819310000000     0.0315107  
C69      C      0.232540000000     0.478790000000     0.862210000000     0.0314852  
C70      C      0.286180000000     0.033740000000     0.862190000000     0.0314818  
C71      C      0.286840000000     0.033070000000     0.819280000000     0.0314306  
C72      C      0.231870000000     0.479450000000     0.819300000000     0.0314527  
C73      C      0.384790000000     0.224900000000     0.007540000000     0.0299862  
C74      C      0.416110000000     0.287540000000     0.007330000000     0.0299953  
C75      C      0.383990000000     0.287540000000     0.007540000000     0.0299785  
C76      C      0.352670000000     0.224900000000     0.007330000000     0.0299626  
C77      C      0.133990000000     0.287540000000     0.007550000000     0.0298365  
C78      C      0.102670000000     0.224900000000     0.007330000000     0.0297717  
C79      C      0.134790000000     0.224900000000     0.007550000000     0.0297222  
C80      C      0.166110000000     0.287540000000     0.007330000000     0.0299255  
C81      C      0.036210000000     0.283720000000     0.862230000000     0.0298144  
C82      C      0.482580000000     0.228760000000     0.862220000000     0.0314762  
C83      C      0.481920000000     0.229430000000     0.819310000000     0.031501   
C84      C      0.036880000000     0.283060000000     0.819320000000     0.0298266  
C85      C      0.416100000000     0.037600000000     0.007280000000     0.029898   
C86      C      0.384770000000     0.474950000000     0.007510000000     0.0299542  
C87      C      0.352650000000     0.474950000000     0.007290000000     0.0299303  
C88      C      0.383980000000     0.037600000000     0.007490000000     0.0299546  
C89      C      0.133980000000     0.037600000000     0.007530000000     0.029813   
C90      C      0.102650000000     0.474950000000     0.007330000000     0.0297386  
C91      C      0.134770000000     0.474950000000     0.007540000000     0.0296866  
C92      C      0.166100000000     0.037600000000     0.007320000000     0.0298344  
C93      C      0.482580000000     0.478810000000     0.862210000000     0.0315796  
C94      C      0.036210000000     0.033760000000     0.862190000000     0.0297285  
C95      C      0.036880000000     0.033090000000     0.819280000000     0.0298249  
C96      C      0.481920000000     0.479470000000     0.819300000000     0.031477   
C97      C      0.286170000000     0.255580000000     0.485980000000     0.0313576  
C98      C      0.232540000000     0.256910000000     0.485980000000     0.0313178  
C99      C      0.231870000000     0.255580000000     0.528890000000     0.031334   
C100     C      0.286830000000     0.256910000000     0.528890000000     0.0313651  
C101     C      0.258710000000     0.283050000000     0.195550000000     0.031365   
C102     C      0.260040000000     0.229420000000     0.195570000000     0.031343   
C103     C      0.258710000000     0.228750000000     0.152660000000     0.0313435  
C104     C      0.260050000000     0.283710000000     0.152640000000     0.0313896  
C105     C      0.286170000000     0.005550000000     0.485950000000     0.0313576  
C106     C      0.232560000000     0.506890000000     0.485960000000     0.0314249  
C107     C      0.231880000000     0.505550000000     0.528870000000     0.0312397  
C108     C      0.286840000000     0.006880000000     0.528860000000     0.0312736  
C109     C      0.258740000000     0.033090000000     0.195530000000     0.0312587  
C110     C      0.260060000000     0.479460000000     0.195540000000     0.0314435  
C111     C      0.258730000000     0.478790000000     0.152630000000     0.0312973  
C112     C      0.260070000000     0.033760000000     0.152620000000     0.0313341  
C113     C      0.482590000000     0.256940000000     0.485980000000     0.0314037  
C114     C      0.036210000000     0.255610000000     0.485980000000     0.0296768  
C115     C      0.036880000000     0.256950000000     0.528890000000     0.0297093  
C116     C      0.481920000000     0.255610000000     0.528890000000     0.0313261  
C117     C      0.416110000000     0.131650000000     0.340890000000     0.0301499  
C118     C      0.384790000000     0.162960000000     0.340680000000     0.0302696  
C119     C      0.352670000000     0.130850000000     0.340890000000     0.0300954  
C120     C      0.383990000000     0.099530000000     0.340670000000     0.030169   
C121     C      0.133990000000     0.349530000000     0.340640000000     0.0300832  
C122     C      0.102670000000     0.380840000000     0.340850000000     0.0300251  
C123     C      0.134790000000     0.412960000000     0.340630000000     0.0299423  
C124     C      0.166110000000     0.381640000000     0.340850000000     0.0299818  
C125     C      0.008710000000     0.283040000000     0.195560000000     0.0296407  
C126     C      0.510040000000     0.229410000000     0.195560000000     0.0314437  
C127     C      0.508710000000     0.228740000000     0.152650000000     0.0313286  
C128     C      0.010040000000     0.283700000000     0.152650000000     0.0302205  
C129     C      0.036190000000     0.005590000000     0.485950000000     0.0295567  
C130     C      0.482570000000     0.506920000000     0.485970000000     0.0313589  
C131     C      0.481910000000     0.505590000000     0.528880000000     0.0313858  
C132     C      0.036860000000     0.006930000000     0.528860000000     0.0297055  
C133     C      0.352640000000     0.380840000000     0.340880000000     0.0301728  
C134     C      0.383960000000     0.349530000000     0.340660000000     0.0302143  
C135     C      0.416080000000     0.381650000000     0.340880000000     0.0302091  
C136     C      0.384760000000     0.412960000000     0.340660000000     0.0301765  
C137     C      0.102640000000     0.130850000000     0.340860000000     0.0299995  
C138     C      0.133960000000     0.099530000000     0.340650000000     0.0299964  
C139     C      0.166080000000     0.131650000000     0.340870000000     0.0301606  
C140     C      0.134760000000     0.162970000000     0.340650000000     0.0298064  
C141     C      0.508700000000     0.033070000000     0.195530000000     0.0313585  
C142     C      0.010020000000     0.479440000000     0.195540000000     0.030252   
C143     C      0.008690000000     0.478780000000     0.152630000000     0.0296401  
C144     C      0.510030000000     0.033740000000     0.152620000000     0.0313282  
C145     C      0.509360000000     0.006250000000     0.258880000000     0.404685   
C146     C      0.009370000000     0.506250000000     0.422620000000     0.393318   
C147     C      0.448030000000     0.944920000000     0.340740000000     0.404067   
C148     C      0.070690000000     0.567580000000     0.340740000000     0.404426   
C149     C      0.509380000000     0.756230000000     0.258860000000     0.405058   
C150     C      0.509400000000     0.756260000000     0.422580000000     0.40514    
C151     C      0.070720000000     0.817580000000     0.340700000000     0.404406   
C152     C      0.448060000000     0.694910000000     0.340740000000     0.403977   
C153     C      0.259390000000     0.506260000000     0.258890000000     0.40488    
C154     C      0.259380000000     0.506230000000     0.422620000000     0.404814   
C155     C      0.198060000000     0.944910000000     0.340720000000     0.404168   
C156     C      0.320720000000     0.567580000000     0.340760000000     0.404013   
C157     C      0.259360000000     0.756250000000     0.422590000000     0.404995   
C158     C      0.259370000000     0.756240000000     0.258860000000     0.404874   
C159     C      0.198030000000     0.694910000000     0.340730000000     0.403957   
C160     C      0.320690000000     0.817580000000     0.340720000000     0.403839   
C161     C      0.509360000000     0.506270000000     0.089280000000     0.404774   
C162     C      0.509380000000     0.506280000000     0.925560000000     0.404723   
C163     C      0.070700000000     0.506280000000     0.007430000000     0.404084   
C164     C      0.448040000000     0.506280000000     0.007410000000     0.403773   
C165     C      0.009380000000     0.756220000000     0.089250000000     0.393122   
C166     C      0.509390000000     0.756230000000     0.925520000000     0.404705   
C167     C      0.070710000000     0.756220000000     0.007390000000     0.404197   
C168     C      0.448050000000     0.756220000000     0.007380000000     0.403734   
C169     C      0.259380000000     0.506270000000     0.089280000000     0.404974   
C170     C      0.259360000000     0.506270000000     0.925560000000     0.404906   
C171     C      0.198040000000     0.506280000000     0.007430000000     0.403689   
C172     C      0.320700000000     0.506280000000     0.007410000000     0.403776   
C173     C      0.259380000000     0.756230000000     0.089250000000     0.404757   
C174     C      0.259380000000     0.756220000000     0.925530000000     0.40467    
C175     C      0.320710000000     0.756220000000     0.007390000000     0.403768   
C176     C      0.198050000000     0.756220000000     0.007390000000     0.403671   
C177     C      0.509400000000     0.944940000000     0.674070000000     0.404025   
C178     C      0.509400000000     0.567600000000     0.674070000000     0.404033   
C179     C      0.509390000000     0.506260000000     0.592220000000     0.405078   
C180     C      0.509400000000     0.506280000000     0.755950000000     0.404974   
C181     C      0.509400000000     0.694940000000     0.674050000000     0.404019   
C182     C      0.509400000000     0.817600000000     0.674060000000     0.404158   
C183     C      0.509400000000     0.756280000000     0.592190000000     0.404878   
C184     C      0.509400000000     0.756260000000     0.755910000000     0.405117   
C185     C      0.259350000000     0.944900000000     0.674090000000     0.403843   
C186     C      0.259360000000     0.567570000000     0.674060000000     0.403992   
C187     C      0.259360000000     0.506220000000     0.592220000000     0.404887   
C188     C      0.259350000000     0.506250000000     0.755950000000     0.405228   
C189     C      0.259360000000     0.694900000000     0.674050000000     0.404036   
C190     C      0.259360000000     0.817560000000     0.674070000000     0.404044   
C191     C      0.259350000000     0.756240000000     0.592190000000     0.405023   
C192     C      0.259360000000     0.756230000000     0.755920000000     0.40497    
C193     C      0.290680000000     0.912950000000     0.674190000000     0.0301756  
C194     C      0.228030000000     0.881630000000     0.673980000000     0.0300645  
C195     C      0.228040000000     0.849510000000     0.674190000000     0.0302476  
C196     C      0.290680000000     0.880830000000     0.673970000000     0.0302122  
C197     C      0.290680000000     0.630840000000     0.673940000000     0.0301652  
C198     C      0.228040000000     0.599510000000     0.674160000000     0.0302002  
C199     C      0.228040000000     0.631630000000     0.673940000000     0.0301605  
C200     C      0.290680000000     0.662950000000     0.674150000000     0.0301697  
C201     C      0.478080000000     0.881670000000     0.673960000000     0.0301881  
C202     C      0.540720000000     0.912990000000     0.674180000000     0.030155   
C203     C      0.540720000000     0.880870000000     0.673960000000     0.030207   
C204     C      0.478080000000     0.849550000000     0.674170000000     0.0301899  
C205     C      0.540720000000     0.630870000000     0.673950000000     0.0301536  
C206     C      0.478080000000     0.599550000000     0.674170000000     0.0301949  
C207     C      0.478080000000     0.631670000000     0.673940000000     0.0301724  
C208     C      0.540720000000     0.662990000000     0.674160000000     0.0301752  
C209     C      0.286190000000     0.783700000000     0.862180000000     0.0315125  
C210     C      0.232560000000     0.728740000000     0.862180000000     0.0314638  
C211     C      0.231890000000     0.729410000000     0.819270000000     0.0314871  
C212     C      0.286850000000     0.783030000000     0.819270000000     0.0315128  
C213     C      0.232550000000     0.978780000000     0.862200000000     0.031714   
C214     C      0.286170000000     0.533750000000     0.862210000000     0.0315451  
C215     C      0.286830000000     0.533080000000     0.819300000000     0.0314833  
C216     C      0.231880000000     0.979440000000     0.819290000000     0.0316766  
C217     C      0.384780000000     0.724900000000     0.007490000000     0.0299625  
C218     C      0.416100000000     0.787540000000     0.007280000000     0.0299709  
C219     C      0.383980000000     0.787540000000     0.007490000000     0.0300039  
C220     C      0.352660000000     0.724900000000     0.007280000000     0.0299807  
C221     C      0.133980000000     0.787540000000     0.007500000000     0.0298606  
C222     C      0.102660000000     0.724900000000     0.007280000000     0.0297952  
C223     C      0.134780000000     0.724900000000     0.007500000000     0.0296929  
C224     C      0.166100000000     0.787540000000     0.007280000000     0.0298965  
C225     C      0.036210000000     0.783720000000     0.862180000000     0.0297474  
C226     C      0.482580000000     0.728760000000     0.862170000000     0.0314811  
C227     C      0.481920000000     0.729440000000     0.819260000000     0.0315758  
C228     C      0.036870000000     0.783060000000     0.819270000000     0.0299047  
C229     C      0.416090000000     0.537600000000     0.007300000000     0.0299601  
C230     C      0.384780000000     0.974960000000     0.007490000000     0.0301914  
C231     C      0.352660000000     0.974960000000     0.007280000000     0.0302379  
C232     C      0.383970000000     0.537600000000     0.007510000000     0.0299856  
C233     C      0.133970000000     0.537600000000     0.007550000000     0.0298369  
C234     C      0.102660000000     0.974960000000     0.007320000000     0.0300396  
C235     C      0.134780000000     0.974960000000     0.007530000000     0.0299321  
C236     C      0.166090000000     0.537600000000     0.007330000000     0.0298908  
C237     C      0.482580000000     0.978800000000     0.862190000000     0.0317241  
C238     C      0.036200000000     0.533760000000     0.862210000000     0.0298529  
C239     C      0.036880000000     0.533100000000     0.819300000000     0.0297701  
C240     C      0.481920000000     0.979460000000     0.819280000000     0.0316949  
C241     C      0.286170000000     0.755580000000     0.485940000000     0.0313431  
C242     C      0.232540000000     0.756910000000     0.485940000000     0.0312472  
C243     C      0.231880000000     0.755580000000     0.528850000000     0.0314706  
C244     C      0.286830000000     0.756910000000     0.528850000000     0.031391   
C245     C      0.258700000000     0.783050000000     0.195510000000     0.0312807  
C246     C      0.260040000000     0.729420000000     0.195520000000     0.0314125  
C247     C      0.258710000000     0.728750000000     0.152610000000     0.0313277  
C248     C      0.260040000000     0.783710000000     0.152600000000     0.0313882  
C249     C      0.286180000000     0.505560000000     0.485970000000     0.0313645  
C250     C      0.232550000000     0.006880000000     0.485950000000     0.0313583  
C251     C      0.231880000000     0.005550000000     0.528860000000     0.0312582  
C252     C      0.286840000000     0.506880000000     0.528880000000     0.0313957  
C253     C      0.258730000000     0.533080000000     0.195550000000     0.0313954  
C254     C      0.260070000000     0.979460000000     0.195520000000     0.0316364  
C255     C      0.258740000000     0.978800000000     0.152610000000     0.0315615  
C256     C      0.260060000000     0.533750000000     0.152640000000     0.0313535  
C257     C      0.482590000000     0.756940000000     0.485930000000     0.0313254  
C258     C      0.036220000000     0.755610000000     0.485930000000     0.0295746  
C259     C      0.036880000000     0.756940000000     0.528840000000     0.0297369  
C260     C      0.481930000000     0.755610000000     0.528840000000     0.0314651  
C261     C      0.416110000000     0.631650000000     0.340860000000     0.0301776  
C262     C      0.384790000000     0.662960000000     0.340650000000     0.0302695  
C263     C      0.352670000000     0.630850000000     0.340870000000     0.0300968  
C264     C      0.383990000000     0.599530000000     0.340660000000     0.0301642  
C265     C      0.133990000000     0.849530000000     0.340590000000     0.0300566  
C266     C      0.102670000000     0.880840000000     0.340800000000     0.0300334  
C267     C      0.134790000000     0.912960000000     0.340590000000     0.0299697  
C268     C      0.166110000000     0.881640000000     0.340810000000     0.0300236  
C269     C      0.008710000000     0.783030000000     0.195500000000     0.0296865  
C270     C      0.510040000000     0.729410000000     0.195510000000     0.0314123  
C271     C      0.508710000000     0.728740000000     0.152600000000     0.0313078  
C272     C      0.010040000000     0.783700000000     0.152600000000     0.0301936  
C273     C      0.036200000000     0.505590000000     0.485960000000     0.0296502  
C274     C      0.482560000000     0.006920000000     0.485950000000     0.031299   
C275     C      0.481900000000     0.005590000000     0.528860000000     0.0313209  
C276     C      0.036870000000     0.506920000000     0.528870000000     0.0296576  
C277     C      0.352640000000     0.880850000000     0.340830000000     0.030126   
C278     C      0.383960000000     0.849530000000     0.340620000000     0.030215   
C279     C      0.416080000000     0.881650000000     0.340840000000     0.0302295  
C280     C      0.384760000000     0.912970000000     0.340620000000     0.0301467  
C281     C      0.102640000000     0.630850000000     0.340840000000     0.0299451  
C282     C      0.133960000000     0.599530000000     0.340630000000     0.0299972  
C283     C      0.166080000000     0.631650000000     0.340840000000     0.0301656  
C284     C      0.134760000000     0.662960000000     0.340620000000     0.0299038  
C285     C      0.508690000000     0.533070000000     0.195550000000     0.0314034  
C286     C      0.010030000000     0.979450000000     0.195520000000     0.0305253  
C287     C      0.008700000000     0.978780000000     0.152610000000     0.0297688  
C288     C      0.510020000000     0.533740000000     0.152640000000     0.0312896  
C289     C      0.009350000000     0.506250000000     0.258890000000     0.393252   
C290     C      0.509360000000     0.006250000000     0.422600000000     0.404515   
C291     C      0.948030000000     0.444910000000     0.340760000000     0.404337   
C292     C      0.570690000000     0.067580000000     0.340740000000     0.403972   
C293     C      0.009380000000     0.256230000000     0.258910000000     0.393352   
C294     C      0.009400000000     0.256260000000     0.422630000000     0.393128   
C295     C      0.570720000000     0.317570000000     0.340750000000     0.40405    
C296     C      0.948060000000     0.194920000000     0.340780000000     0.4042     
C297     C      0.759400000000     0.006270000000     0.258870000000     0.404693   
C298     C      0.759370000000     0.006230000000     0.422600000000     0.404788   
C299     C      0.698060000000     0.444910000000     0.340740000000     0.404202   
C300     C      0.820720000000     0.067580000000     0.340760000000     0.404163   
C301     C      0.759360000000     0.256250000000     0.422630000000     0.404882   
C302     C      0.759370000000     0.256240000000     0.258910000000     0.405203   
C303     C      0.698030000000     0.194920000000     0.340760000000     0.404028   
C304     C      0.820690000000     0.317570000000     0.340770000000     0.404422   
C305     C      0.009370000000     0.006270000000     0.089270000000     0.392853   
C306     C      0.009390000000     0.006280000000     0.925540000000     0.392663   
C307     C      0.570710000000     0.006280000000     0.007420000000     0.403638   
C308     C      0.948050000000     0.006280000000     0.007390000000     0.403653   
C309     C      0.509380000000     0.256220000000     0.089300000000     0.404769   
C310     C      0.009390000000     0.256230000000     0.925580000000     0.392957   
C311     C      0.570720000000     0.256220000000     0.007440000000     0.403709   
C312     C      0.948060000000     0.256220000000     0.007440000000     0.403905   
C313     C      0.759400000000     0.006280000000     0.089270000000     0.404436   
C314     C      0.759370000000     0.006270000000     0.925540000000     0.404381   
C315     C      0.698050000000     0.006280000000     0.007420000000     0.403515   
C316     C      0.820710000000     0.006280000000     0.007390000000     0.403874   
C317     C      0.759390000000     0.256230000000     0.089300000000     0.404844   
C318     C      0.759380000000     0.256220000000     0.925570000000     0.404927   
C319     C      0.820720000000     0.256220000000     0.007440000000     0.403873   
C320     C      0.698060000000     0.256220000000     0.007430000000     0.403729   
C321     C      0.009400000000     0.444940000000     0.674100000000     0.392482   
C322     C      0.009400000000     0.067600000000     0.674070000000     0.392547   
C323     C      0.009390000000     0.006270000000     0.592210000000     0.392994   
C324     C      0.009400000000     0.006270000000     0.755930000000     0.393028   
C325     C      0.009400000000     0.194940000000     0.674090000000     0.39247    
C326     C      0.009400000000     0.317600000000     0.674110000000     0.392517   
C327     C      0.009400000000     0.256280000000     0.592240000000     0.393446   
C328     C      0.009400000000     0.256260000000     0.755970000000     0.393328   
C329     C      0.759360000000     0.444900000000     0.674110000000     0.404024   
C330     C      0.759360000000     0.067560000000     0.674060000000     0.404247   
C331     C      0.759350000000     0.006220000000     0.592210000000     0.404741   
C332     C      0.759360000000     0.006240000000     0.755930000000     0.40476    
C333     C      0.759360000000     0.194900000000     0.674080000000     0.404012   
C334     C      0.759360000000     0.317560000000     0.674120000000     0.404148   
C335     C      0.759350000000     0.256240000000     0.592240000000     0.405067   
C336     C      0.759360000000     0.256220000000     0.755960000000     0.404915   
C337     C      0.790680000000     0.412950000000     0.674230000000     0.0301917  
C338     C      0.728040000000     0.381630000000     0.674010000000     0.0301706  
C339     C      0.728040000000     0.349510000000     0.674230000000     0.0301778  
C340     C      0.790680000000     0.380830000000     0.674020000000     0.0302054  
C341     C      0.790680000000     0.130830000000     0.673950000000     0.0302183  
C342     C      0.728040000000     0.099510000000     0.674170000000     0.0301896  
C343     C      0.728040000000     0.131630000000     0.673960000000     0.0301568  
C344     C      0.790680000000     0.162950000000     0.674180000000     0.0301823  
C345     C      0.978080000000     0.381670000000     0.674010000000     0.0371117  
C346     C      0.040720000000     0.412990000000     0.674220000000     0.0285895  
C347     C      0.040720000000     0.380870000000     0.674010000000     0.0285944  
C348     C      0.978080000000     0.349550000000     0.674220000000     0.0371124  
C349     C      0.040720000000     0.130870000000     0.673970000000     0.0285959  
C350     C      0.978080000000     0.099550000000     0.674180000000     0.0370951  
C351     C      0.978080000000     0.131670000000     0.673980000000     0.0370946  
C352     C      0.040720000000     0.162990000000     0.674190000000     0.028591   
C353     C      0.786190000000     0.283690000000     0.862220000000     0.0316352  
C354     C      0.732560000000     0.228740000000     0.862220000000     0.0315392  
C355     C      0.731890000000     0.229400000000     0.819310000000     0.0314655  
C356     C      0.786850000000     0.283030000000     0.819310000000     0.0315602  
C357     C      0.732540000000     0.478790000000     0.862210000000     0.0315271  
C358     C      0.786180000000     0.033740000000     0.862190000000     0.0315423  
C359     C      0.786840000000     0.033070000000     0.819280000000     0.0314945  
C360     C      0.731870000000     0.479450000000     0.819300000000     0.0314919  
C361     C      0.884790000000     0.224900000000     0.007540000000     0.0304375  
C362     C      0.916110000000     0.287540000000     0.007330000000     0.0305695  
C363     C      0.883990000000     0.287540000000     0.007540000000     0.0304531  
C364     C      0.852670000000     0.224900000000     0.007330000000     0.0301781  
C365     C      0.633990000000     0.287540000000     0.007540000000     0.0299603  
C366     C      0.602670000000     0.224900000000     0.007330000000     0.0299417  
C367     C      0.634780000000     0.224900000000     0.007540000000     0.0299234  
C368     C      0.666110000000     0.287540000000     0.007330000000     0.0299613  
C369     C      0.536210000000     0.283720000000     0.862230000000     0.0315551  
C370     C      0.982580000000     0.228760000000     0.862220000000     0.0384337  
C371     C      0.981920000000     0.229430000000     0.819310000000     0.0384729  
C372     C      0.536880000000     0.283060000000     0.819320000000     0.031454   
C373     C      0.916100000000     0.037600000000     0.007280000000     0.0304998  
C374     C      0.884770000000     0.474950000000     0.007510000000     0.0304219  
C375     C      0.852650000000     0.474950000000     0.007290000000     0.0301403  
C376     C      0.883990000000     0.037600000000     0.007490000000     0.0303889  
C377     C      0.633990000000     0.037600000000     0.007530000000     0.0298865  
C378     C      0.602650000000     0.474950000000     0.007330000000     0.029903   
C379     C      0.634770000000     0.474950000000     0.007540000000     0.0298991  
C380     C      0.666100000000     0.037600000000     0.007320000000     0.0298885  
C381     C      0.982580000000     0.478810000000     0.862210000000     0.038591   
C382     C      0.536210000000     0.033760000000     0.862190000000     0.0314612  
C383     C      0.536880000000     0.033090000000     0.819280000000     0.0314507  
C384     C      0.981910000000     0.479470000000     0.819300000000     0.0383696  
C385     C      0.786170000000     0.255580000000     0.485980000000     0.0313866  
C386     C      0.732540000000     0.256910000000     0.485980000000     0.0312982  
C387     C      0.731880000000     0.255580000000     0.528890000000     0.031464   
C388     C      0.786830000000     0.256910000000     0.528890000000     0.0314832  
C389     C      0.758710000000     0.283050000000     0.195550000000     0.0315026  
C390     C      0.760040000000     0.229420000000     0.195560000000     0.0314747  
C391     C      0.758710000000     0.228750000000     0.152650000000     0.0315004  
C392     C      0.760050000000     0.283710000000     0.152640000000     0.0315416  
C393     C      0.786180000000     0.005550000000     0.485950000000     0.0312913  
C394     C      0.732550000000     0.506880000000     0.485960000000     0.0313583  
C395     C      0.731880000000     0.505550000000     0.528870000000     0.0313326  
C396     C      0.786840000000     0.006880000000     0.528860000000     0.0314321  
C397     C      0.758750000000     0.033090000000     0.195530000000     0.0314748  
C398     C      0.760060000000     0.479460000000     0.195530000000     0.0315543  
C399     C      0.758730000000     0.478790000000     0.152620000000     0.0314718  
C400     C      0.760070000000     0.033760000000     0.152620000000     0.0313901  
C401     C      0.982590000000     0.256940000000     0.485980000000     0.0383546  
C402     C      0.536210000000     0.255610000000     0.485980000000     0.0314695  
C403     C      0.536880000000     0.256940000000     0.528890000000     0.0312703  
C404     C      0.981920000000     0.255610000000     0.528890000000     0.0382985  
C405     C      0.916110000000     0.131650000000     0.340890000000     0.0308412  
C406     C      0.884790000000     0.162960000000     0.340680000000     0.0306481  
C407     C      0.852670000000     0.130850000000     0.340880000000     0.0303397  
C408     C      0.883990000000     0.099530000000     0.340670000000     0.0305754  
C409     C      0.633990000000     0.349530000000     0.340640000000     0.030179   
C410     C      0.602670000000     0.380840000000     0.340850000000     0.0301911  
C411     C      0.634790000000     0.412960000000     0.340630000000     0.0301867  
C412     C      0.666110000000     0.381640000000     0.340850000000     0.0300538  
C413     C      0.508710000000     0.283040000000     0.195550000000     0.0312852  
C414     C      0.010040000000     0.229410000000     0.195560000000     0.0302641  
C415     C      0.008710000000     0.228740000000     0.152650000000     0.0296132  
C416     C      0.510040000000     0.283700000000     0.152650000000     0.0313606  
C417     C      0.536190000000     0.005590000000     0.485940000000     0.0312993  
C418     C      0.982570000000     0.506920000000     0.485970000000     0.0383431  
C419     C      0.981910000000     0.505590000000     0.528880000000     0.038342   
C420     C      0.536860000000     0.006930000000     0.528860000000     0.0313331  
C421     C      0.852640000000     0.380840000000     0.340880000000     0.0304023  
C422     C      0.883960000000     0.349530000000     0.340660000000     0.0306739  
C423     C      0.916080000000     0.381650000000     0.340870000000     0.0308028  
C424     C      0.884760000000     0.412960000000     0.340660000000     0.0306378  
C425     C      0.602640000000     0.130850000000     0.340860000000     0.030088   
C426     C      0.633960000000     0.099530000000     0.340640000000     0.0301873  
C427     C      0.666080000000     0.131650000000     0.340860000000     0.0301798  
C428     C      0.634760000000     0.162970000000     0.340650000000     0.0300955  
C429     C      0.008700000000     0.033070000000     0.195530000000     0.0296246  
C430     C      0.510010000000     0.479440000000     0.195540000000     0.0314095  
C431     C      0.508690000000     0.478780000000     0.152630000000     0.0313636  
C432     C      0.010030000000     0.033740000000     0.152620000000     0.0302242  
C433     C      0.009360000000     0.006250000000     0.258880000000     0.393113   
C434     C      0.509370000000     0.506250000000     0.422610000000     0.405135   
C435     C      0.948030000000     0.944920000000     0.340740000000     0.404205   
C436     C      0.570690000000     0.567580000000     0.340740000000     0.403959   
C437     C      0.009380000000     0.756230000000     0.258860000000     0.393435   
C438     C      0.009400000000     0.756260000000     0.422580000000     0.393387   
C439     C      0.570720000000     0.817580000000     0.340700000000     0.404008   
C440     C      0.948060000000     0.694910000000     0.340740000000     0.403918   
C441     C      0.759400000000     0.506260000000     0.258890000000     0.404879   
C442     C      0.759380000000     0.506230000000     0.422610000000     0.404878   
C443     C      0.698060000000     0.944910000000     0.340710000000     0.404211   
C444     C      0.820720000000     0.567580000000     0.340760000000     0.404137   
C445     C      0.759360000000     0.756250000000     0.422580000000     0.40509    
C446     C      0.759370000000     0.756240000000     0.258860000000     0.40486    
C447     C      0.698030000000     0.694910000000     0.340720000000     0.403988   
C448     C      0.820690000000     0.817580000000     0.340720000000     0.4042     
C449     C      0.009360000000     0.506270000000     0.089280000000     0.39315    
C450     C      0.009380000000     0.506280000000     0.925560000000     0.392914   
C451     C      0.570700000000     0.506280000000     0.007430000000     0.403768   
C452     C      0.948040000000     0.506280000000     0.007410000000     0.403863   
C453     C      0.509380000000     0.756220000000     0.089250000000     0.404746   
C454     C      0.009390000000     0.756230000000     0.925520000000     0.392957   
C455     C      0.570710000000     0.756220000000     0.007390000000     0.403718   
C456     C      0.948050000000     0.756220000000     0.007380000000     0.403842   
C457     C      0.759380000000     0.506270000000     0.089280000000     0.405137   
C458     C      0.759360000000     0.506270000000     0.925550000000     0.404672   
C459     C      0.698040000000     0.506270000000     0.007430000000     0.403684   
C460     C      0.820700000000     0.506270000000     0.007400000000     0.403873   
C461     C      0.759380000000     0.756230000000     0.089250000000     0.404845   
C462     C      0.759380000000     0.756220000000     0.925520000000     0.404656   
C463     C      0.820710000000     0.756220000000     0.007390000000     0.403812   
C464     C      0.698050000000     0.756220000000     0.007390000000     0.403719   
C465     C      0.009400000000     0.944940000000     0.674070000000     0.392521   
C466     C      0.009400000000     0.567600000000     0.674070000000     0.39248    
C467     C      0.009390000000     0.506260000000     0.592220000000     0.393412   
C468     C      0.009400000000     0.506280000000     0.755950000000     0.393404   
C469     C      0.009400000000     0.694940000000     0.674050000000     0.392462   
C470     C      0.009400000000     0.817600000000     0.674060000000     0.392537   
C471     C      0.009400000000     0.756280000000     0.592190000000     0.393569   
C472     C      0.009400000000     0.756260000000     0.755920000000     0.39329    
C473     C      0.759360000000     0.944900000000     0.674080000000     0.403826   
C474     C      0.759360000000     0.567560000000     0.674060000000     0.404057   
C475     C      0.759360000000     0.506220000000     0.592220000000     0.404876   
C476     C      0.759350000000     0.506250000000     0.755950000000     0.405081   
C477     C      0.759360000000     0.694900000000     0.674040000000     0.404012   
C478     C      0.759360000000     0.817560000000     0.674070000000     0.404158   
C479     C      0.759360000000     0.756240000000     0.592190000000     0.405082   
C480     C      0.759360000000     0.756220000000     0.755920000000     0.404876   
C481     C      0.790680000000     0.912950000000     0.674190000000     0.0301231  
C482     C      0.728040000000     0.881630000000     0.673980000000     0.0302304  
C483     C      0.728040000000     0.849510000000     0.674190000000     0.0301626  
C484     C      0.790680000000     0.880830000000     0.673970000000     0.0302506  
C485     C      0.790680000000     0.630830000000     0.673940000000     0.0302042  
C486     C      0.728040000000     0.599510000000     0.674150000000     0.0301903  
C487     C      0.728040000000     0.631630000000     0.673940000000     0.0301633  
C488     C      0.790680000000     0.662950000000     0.674150000000     0.0301871  
C489     C      0.978080000000     0.881670000000     0.673960000000     0.0370976  
C490     C      0.040720000000     0.912990000000     0.674180000000     0.0285826  
C491     C      0.040720000000     0.880870000000     0.673960000000     0.0286217  
C492     C      0.978080000000     0.849550000000     0.674180000000     0.0371037  
C493     C      0.040720000000     0.630870000000     0.673950000000     0.028593   
C494     C      0.978080000000     0.599550000000     0.674170000000     0.0371082  
C495     C      0.978080000000     0.631670000000     0.673940000000     0.0371046  
C496     C      0.040720000000     0.662990000000     0.674160000000     0.0285884  
C497     C      0.786190000000     0.783700000000     0.862180000000     0.0315429  
C498     C      0.732560000000     0.728740000000     0.862180000000     0.0315597  
C499     C      0.731890000000     0.729410000000     0.819270000000     0.0314969  
C500     C      0.786850000000     0.783030000000     0.819260000000     0.0316188  
C501     C      0.732550000000     0.978780000000     0.862200000000     0.0317515  
C502     C      0.786170000000     0.533750000000     0.862200000000     0.0315842  
C503     C      0.786830000000     0.533080000000     0.819290000000     0.0315685  
C504     C      0.731880000000     0.979440000000     0.819290000000     0.0317037  
C505     C      0.884780000000     0.724900000000     0.007490000000     0.0304296  
C506     C      0.916100000000     0.787540000000     0.007280000000     0.0305623  
C507     C      0.883980000000     0.787540000000     0.007490000000     0.0304642  
C508     C      0.852660000000     0.724900000000     0.007280000000     0.0301888  
C509     C      0.633980000000     0.787540000000     0.007490000000     0.0299764  
C510     C      0.602660000000     0.724900000000     0.007280000000     0.0299486  
C511     C      0.634780000000     0.724900000000     0.007490000000     0.0299324  
C512     C      0.666100000000     0.787540000000     0.007280000000     0.0299445  
C513     C      0.536210000000     0.783720000000     0.862180000000     0.0315025  
C514     C      0.982580000000     0.728760000000     0.862170000000     0.0384577  
C515     C      0.981920000000     0.729440000000     0.819260000000     0.0384906  
C516     C      0.536870000000     0.783060000000     0.819270000000     0.0314949  
C517     C      0.916090000000     0.537600000000     0.007300000000     0.0305422  
C518     C      0.884780000000     0.974960000000     0.007490000000     0.0306508  
C519     C      0.852660000000     0.974960000000     0.007280000000     0.0304307  
C520     C      0.883970000000     0.537600000000     0.007510000000     0.0304755  
C521     C      0.633970000000     0.537600000000     0.007550000000     0.0299466  
C522     C      0.602660000000     0.974960000000     0.007310000000     0.0301985  
C523     C      0.634780000000     0.974960000000     0.007530000000     0.0301689  
C524     C      0.666090000000     0.537600000000     0.007330000000     0.0299404  
C525     C      0.982580000000     0.978800000000     0.862190000000     0.0386509  
C526     C      0.536210000000     0.533760000000     0.862210000000     0.0315091  
C527     C      0.536870000000     0.533100000000     0.819300000000     0.0314897  
C528     C      0.981920000000     0.979460000000     0.819280000000     0.0386131  
C529     C      0.786170000000     0.755580000000     0.485930000000     0.0314285  
C530     C      0.732540000000     0.756910000000     0.485930000000     0.0313046  
C531     C      0.731880000000     0.755580000000     0.528840000000     0.0315002  
C532     C      0.786830000000     0.756910000000     0.528840000000     0.0314222  
C533     C      0.758710000000     0.783050000000     0.195500000000     0.0315238  
C534     C      0.760030000000     0.729420000000     0.195510000000     0.0315122  
C535     C      0.758710000000     0.728750000000     0.152600000000     0.0314798  
C536     C      0.760040000000     0.783710000000     0.152590000000     0.0314878  
C537     C      0.786180000000     0.505560000000     0.485970000000     0.0314539  
C538     C      0.732540000000     0.006880000000     0.485940000000     0.0313045  
C539     C      0.731880000000     0.005550000000     0.528860000000     0.0313595  
C540     C      0.786840000000     0.506880000000     0.528880000000     0.031451   
C541     C      0.758730000000     0.533080000000     0.195550000000     0.031528   
C542     C      0.760080000000     0.979460000000     0.195520000000     0.0317236  
C543     C      0.758740000000     0.978800000000     0.152610000000     0.0317348  
C544     C      0.760060000000     0.533750000000     0.152630000000     0.0315212  
C545     C      0.982590000000     0.756940000000     0.485930000000     0.0382842  
C546     C      0.536220000000     0.755610000000     0.485930000000     0.0313156  
C547     C      0.536880000000     0.756940000000     0.528840000000     0.0313706  
C548     C      0.981930000000     0.755610000000     0.528840000000     0.0384253  
C549     C      0.916110000000     0.631650000000     0.340860000000     0.0307587  
C550     C      0.884790000000     0.662960000000     0.340650000000     0.0307297  
C551     C      0.852670000000     0.630850000000     0.340870000000     0.0303106  
C552     C      0.883990000000     0.599530000000     0.340650000000     0.0306368  
C553     C      0.633990000000     0.849530000000     0.340590000000     0.0301469  
C554     C      0.602670000000     0.880840000000     0.340800000000     0.0301897  
C555     C      0.634790000000     0.912960000000     0.340590000000     0.0302125  
C556     C      0.666110000000     0.881650000000     0.340810000000     0.0301723  
C557     C      0.508710000000     0.783040000000     0.195500000000     0.0313083  
C558     C      0.010040000000     0.729410000000     0.195510000000     0.0303049  
C559     C      0.008710000000     0.728740000000     0.152600000000     0.0295817  
C560     C      0.510040000000     0.783700000000     0.152590000000     0.0314175  
C561     C      0.536200000000     0.505590000000     0.485960000000     0.031376   
C562     C      0.982560000000     0.006920000000     0.485950000000     0.0382573  
C563     C      0.981900000000     0.005590000000     0.528860000000     0.0382603  
C564     C      0.536870000000     0.506920000000     0.528870000000     0.0313063  
C565     C      0.852640000000     0.880840000000     0.340830000000     0.0305197  
C566     C      0.883960000000     0.849530000000     0.340620000000     0.0306243  
C567     C      0.916080000000     0.881650000000     0.340840000000     0.0308327  
C568     C      0.884760000000     0.912970000000     0.340620000000     0.0305277  
C569     C      0.602640000000     0.630850000000     0.340840000000     0.030033   
C570     C      0.633960000000     0.599530000000     0.340630000000     0.0301872  
C571     C      0.666080000000     0.631650000000     0.340830000000     0.0301851  
C572     C      0.634760000000     0.662960000000     0.340620000000     0.0301941  
C573     C      0.008690000000     0.533070000000     0.195550000000     0.0296465  
C574     C      0.510030000000     0.979450000000     0.195520000000     0.03157    
C575     C      0.508700000000     0.978790000000     0.152610000000     0.0316341  
C576     C      0.010020000000     0.533740000000     0.152640000000     0.0301917  
Cu1      Cu     0.025740000000     0.489870000000     0.340750000000     0.830442   
Cu2      Cu     0.492990000000     0.022620000000     0.340740000000     0.847816   
Cu3      Cu     0.493010000000     0.272620000000     0.340770000000     0.848352   
Cu4      Cu     0.025760000000     0.239870000000     0.340780000000     0.83042    
Cu5      Cu     0.275760000000     0.489870000000     0.340750000000     0.848448   
Cu6      Cu     0.243010000000     0.022620000000     0.340740000000     0.84774    
Cu7      Cu     0.242990000000     0.272620000000     0.340770000000     0.84831    
Cu8      Cu     0.275740000000     0.239870000000     0.340780000000     0.848446   
Cu9      Cu     0.492990000000     0.473520000000     0.007420000000     0.846652   
Cu10     Cu     0.025760000000     0.039030000000     0.007410000000     0.828346   
Cu11     Cu     0.493010000000     0.223470000000     0.007430000000     0.846543   
Cu12     Cu     0.025760000000     0.288970000000     0.007440000000     0.828594   
Cu13     Cu     0.275760000000     0.039030000000     0.007400000000     0.846239   
Cu14     Cu     0.243000000000     0.473520000000     0.007420000000     0.846651   
Cu15     Cu     0.243010000000     0.223470000000     0.007440000000     0.846415   
Cu16     Cu     0.275760000000     0.288970000000     0.007430000000     0.846632   
Cu17     Cu     0.476650000000     0.489900000000     0.674090000000     0.84832    
Cu18     Cu     0.042150000000     0.022650000000     0.674070000000     0.837501   
Cu19     Cu     0.476650000000     0.239900000000     0.674100000000     0.848372   
Cu20     Cu     0.042150000000     0.272650000000     0.674100000000     0.837965   
Cu21     Cu     0.226600000000     0.489860000000     0.674090000000     0.848079   
Cu22     Cu     0.292110000000     0.022610000000     0.674070000000     0.848037   
Cu23     Cu     0.226610000000     0.239860000000     0.674110000000     0.848111   
Cu24     Cu     0.292110000000     0.272610000000     0.674100000000     0.848377   
Cu25     Cu     0.025740000000     0.989870000000     0.340740000000     0.830927   
Cu26     Cu     0.492990000000     0.522620000000     0.340760000000     0.848418   
Cu27     Cu     0.493010000000     0.772620000000     0.340720000000     0.84834    
Cu28     Cu     0.025760000000     0.739870000000     0.340720000000     0.830354   
Cu29     Cu     0.275760000000     0.989870000000     0.340740000000     0.848911   
Cu30     Cu     0.243010000000     0.522620000000     0.340760000000     0.848258   
Cu31     Cu     0.242990000000     0.772620000000     0.340720000000     0.848275   
Cu32     Cu     0.275740000000     0.739870000000     0.340730000000     0.848379   
Cu33     Cu     0.493010000000     0.973520000000     0.007400000000     0.846731   
Cu34     Cu     0.025750000000     0.539030000000     0.007420000000     0.82874    
Cu35     Cu     0.493010000000     0.723470000000     0.007380000000     0.84656    
Cu36     Cu     0.025760000000     0.788970000000     0.007390000000     0.828498   
Cu37     Cu     0.275750000000     0.539030000000     0.007420000000     0.846606   
Cu38     Cu     0.243010000000     0.973520000000     0.007410000000     0.846701   
Cu39     Cu     0.243010000000     0.723470000000     0.007390000000     0.846524   
Cu40     Cu     0.275760000000     0.788970000000     0.007390000000     0.846499   
Cu41     Cu     0.476650000000     0.989900000000     0.674070000000     0.849028   
Cu42     Cu     0.042150000000     0.522650000000     0.674090000000     0.837931   
Cu43     Cu     0.476650000000     0.739900000000     0.674050000000     0.848416   
Cu44     Cu     0.042150000000     0.772650000000     0.674060000000     0.837986   
Cu45     Cu     0.226600000000     0.989860000000     0.674070000000     0.848904   
Cu46     Cu     0.292110000000     0.522610000000     0.674090000000     0.848563   
Cu47     Cu     0.226610000000     0.739860000000     0.674060000000     0.848211   
Cu48     Cu     0.292110000000     0.772610000000     0.674060000000     0.848447   
Cu49     Cu     0.525740000000     0.489870000000     0.340750000000     0.848323   
Cu50     Cu     0.992980000000     0.022620000000     0.340740000000     0.864247   
Cu51     Cu     0.993010000000     0.272620000000     0.340770000000     0.864727   
Cu52     Cu     0.525760000000     0.239870000000     0.340780000000     0.848256   
Cu53     Cu     0.775760000000     0.489870000000     0.340750000000     0.848547   
Cu54     Cu     0.743010000000     0.022620000000     0.340740000000     0.84773    
Cu55     Cu     0.742990000000     0.272620000000     0.340760000000     0.848248   
Cu56     Cu     0.775740000000     0.239870000000     0.340770000000     0.848613   
Cu57     Cu     0.993000000000     0.473520000000     0.007420000000     0.863035   
Cu58     Cu     0.525760000000     0.039030000000     0.007410000000     0.846261   
Cu59     Cu     0.993010000000     0.223470000000     0.007440000000     0.862956   
Cu60     Cu     0.525760000000     0.288970000000     0.007440000000     0.846424   
Cu61     Cu     0.775760000000     0.039030000000     0.007400000000     0.846527   
Cu62     Cu     0.743000000000     0.473520000000     0.007420000000     0.846632   
Cu63     Cu     0.743010000000     0.223470000000     0.007440000000     0.84639    
Cu64     Cu     0.775760000000     0.288970000000     0.007430000000     0.846868   
Cu65     Cu     0.976650000000     0.489890000000     0.674090000000     0.854322   
Cu66     Cu     0.542150000000     0.022650000000     0.674070000000     0.847708   
Cu67     Cu     0.976650000000     0.239900000000     0.674100000000     0.854372   
Cu68     Cu     0.542150000000     0.272650000000     0.674100000000     0.848307   
Cu69     Cu     0.726600000000     0.489860000000     0.674080000000     0.848191   
Cu70     Cu     0.792110000000     0.022610000000     0.674070000000     0.848155   
Cu71     Cu     0.726610000000     0.239860000000     0.674100000000     0.848268   
Cu72     Cu     0.792110000000     0.272610000000     0.674100000000     0.848574   
Cu73     Cu     0.525740000000     0.989870000000     0.340740000000     0.848854   
Cu74     Cu     0.992980000000     0.522620000000     0.340760000000     0.864855   
Cu75     Cu     0.993010000000     0.772620000000     0.340720000000     0.864623   
Cu76     Cu     0.525760000000     0.739870000000     0.340720000000     0.848339   
Cu77     Cu     0.775760000000     0.989870000000     0.340740000000     0.849092   
Cu78     Cu     0.743010000000     0.522620000000     0.340750000000     0.848328   
Cu79     Cu     0.742990000000     0.772620000000     0.340720000000     0.848269   
Cu80     Cu     0.775740000000     0.739870000000     0.340730000000     0.848672   
Cu81     Cu     0.993010000000     0.973520000000     0.007400000000     0.863078   
Cu82     Cu     0.525750000000     0.539030000000     0.007420000000     0.846608   
Cu83     Cu     0.993010000000     0.723470000000     0.007380000000     0.862811   
Cu84     Cu     0.525760000000     0.788970000000     0.007390000000     0.846418   
Cu85     Cu     0.775750000000     0.539030000000     0.007420000000     0.846885   
Cu86     Cu     0.743010000000     0.973520000000     0.007410000000     0.846757   
Cu87     Cu     0.743010000000     0.723470000000     0.007390000000     0.84647    
Cu88     Cu     0.775760000000     0.788970000000     0.007380000000     0.846928   
Cu89     Cu     0.976640000000     0.989890000000     0.674070000000     0.85488    
Cu90     Cu     0.542150000000     0.522650000000     0.674090000000     0.848333   
Cu91     Cu     0.976650000000     0.739900000000     0.674050000000     0.85428    
Cu92     Cu     0.542150000000     0.772650000000     0.674050000000     0.848227   
Cu93     Cu     0.726600000000     0.989860000000     0.674070000000     0.848927   
Cu94     Cu     0.792110000000     0.522610000000     0.674090000000     0.848859   
Cu95     Cu     0.726610000000     0.739860000000     0.674060000000     0.84834    
Cu96     Cu     0.792110000000     0.772610000000     0.674050000000     0.848584   
H1       H      0.316140000000     0.437330000000     0.674240000000     0.0377897  
H2       H      0.202570000000     0.380540000000     0.674000000000     0.037706   
H3       H      0.202570000000     0.325140000000     0.674250000000     0.0377213  
H4       H      0.316140000000     0.381920000000     0.674000000000     0.0377817  
H5       H      0.316140000000     0.131920000000     0.673940000000     0.0377683  
H6       H      0.202570000000     0.075130000000     0.674190000000     0.0376671  
H7       H      0.202570000000     0.130540000000     0.673960000000     0.0377013  
H8       H      0.316140000000     0.187330000000     0.674190000000     0.0377914  
H9       H      0.452610000000     0.380580000000     0.673990000000     0.0377721  
H10      H      0.566190000000     0.437370000000     0.674230000000     0.037745   
H11      H      0.566190000000     0.381960000000     0.673990000000     0.0377477  
H12      H      0.452610000000     0.325170000000     0.674240000000     0.0377736  
H13      H      0.566180000000     0.131960000000     0.673950000000     0.0377476  
H14      H      0.452610000000     0.075170000000     0.674200000000     0.0377397  
H15      H      0.452610000000     0.130580000000     0.673960000000     0.0377639  
H16      H      0.566180000000     0.187370000000     0.674200000000     0.0377603  
H17      H      0.308060000000     0.305770000000     0.878010000000     0.0381684  
H18      H      0.210690000000     0.206660000000     0.878020000000     0.0380322  
H19      H      0.209820000000     0.207530000000     0.803530000000     0.0378042  
H20      H      0.308920000000     0.304910000000     0.803520000000     0.0379336  
H21      H      0.210670000000     0.456720000000     0.878010000000     0.0380383  
H22      H      0.308050000000     0.055820000000     0.877980000000     0.0381705  
H23      H      0.308910000000     0.054940000000     0.803480000000     0.0379452  
H24      H      0.209800000000     0.457580000000     0.803520000000     0.0378087  
H25      H      0.383700000000     0.199440000000     0.007560000000     0.0375454  
H26      H      0.440490000000     0.313010000000     0.007310000000     0.0375452  
H27      H      0.385080000000     0.313010000000     0.007560000000     0.0375433  
H28      H      0.328290000000     0.199440000000     0.007320000000     0.0375625  
H29      H      0.135080000000     0.313010000000     0.007560000000     0.0374843  
H30      H      0.078290000000     0.199440000000     0.007320000000     0.0364734  
H31      H      0.133700000000     0.199440000000     0.007560000000     0.0372905  
H32      H      0.190490000000     0.313010000000     0.007320000000     0.0375331  
H33      H      0.058080000000     0.305790000000     0.878030000000     0.0380397  
H34      H      0.460710000000     0.206680000000     0.878010000000     0.0381723  
H35      H      0.459850000000     0.207560000000     0.803520000000     0.0379254  
H36      H      0.058950000000     0.304930000000     0.803530000000     0.0378153  
H37      H      0.440480000000     0.063060000000     0.007270000000     0.0375569  
H38      H      0.383680000000     0.449490000000     0.007520000000     0.037548   
H39      H      0.328270000000     0.449490000000     0.007280000000     0.0375701  
H40      H      0.385070000000     0.063060000000     0.007510000000     0.0375405  
H41      H      0.135070000000     0.063060000000     0.007540000000     0.037483   
H42      H      0.078270000000     0.449490000000     0.007310000000     0.03648    
H43      H      0.133680000000     0.449490000000     0.007560000000     0.0372928  
H44      H      0.190480000000     0.063060000000     0.007300000000     0.0375365  
H45      H      0.460700000000     0.456730000000     0.878000000000     0.0381458  
H46      H      0.058080000000     0.055830000000     0.877990000000     0.038041   
H47      H      0.058960000000     0.054960000000     0.803490000000     0.0377942  
H48      H      0.459840000000     0.457600000000     0.803500000000     0.0379449  
H49      H      0.308040000000     0.255380000000     0.470190000000     0.0378215  
H50      H      0.210670000000     0.257120000000     0.470190000000     0.0376978  
H51      H      0.209800000000     0.255380000000     0.544680000000     0.0376881  
H52      H      0.308910000000     0.257110000000     0.544680000000     0.0378158  
H53      H      0.258510000000     0.304920000000     0.211340000000     0.0378255  
H54      H      0.260240000000     0.207550000000     0.211360000000     0.0378169  
H55      H      0.258510000000     0.206680000000     0.136870000000     0.0378185  
H56      H      0.260250000000     0.305780000000     0.136850000000     0.0378126  
H57      H      0.308050000000     0.005350000000     0.470160000000     0.0377457  
H58      H      0.210690000000     0.507090000000     0.470170000000     0.0376599  
H59      H      0.209810000000     0.505350000000     0.544660000000     0.0377152  
H60      H      0.308910000000     0.007080000000     0.544660000000     0.0377888  
H61      H      0.258540000000     0.054960000000     0.211330000000     0.0378374  
H62      H      0.260260000000     0.457580000000     0.211320000000     0.0377994  
H63      H      0.258520000000     0.456720000000     0.136830000000     0.037834   
H64      H      0.260270000000     0.055830000000     0.136830000000     0.037814   
H65      H      0.460710000000     0.257140000000     0.470190000000     0.0377956  
H66      H      0.058090000000     0.255400000000     0.470190000000     0.0376691  
H67      H      0.058960000000     0.257150000000     0.544680000000     0.0376811  
H68      H      0.459850000000     0.255410000000     0.544680000000     0.037831   
H69      H      0.440480000000     0.130560000000     0.340910000000     0.0377419  
H70      H      0.383700000000     0.187340000000     0.340660000000     0.037732   
H71      H      0.328290000000     0.131930000000     0.340900000000     0.0377791  
H72      H      0.385080000000     0.075150000000     0.340660000000     0.0377179  
H73      H      0.135080000000     0.325150000000     0.340630000000     0.0376794  
H74      H      0.078290000000     0.381930000000     0.340870000000     0.0366469  
H75      H      0.133700000000     0.437340000000     0.340620000000     0.0374882  
H76      H      0.190490000000     0.380560000000     0.340860000000     0.0377616  
H77      H      0.008510000000     0.304910000000     0.211340000000     0.0358553  
H78      H      0.510250000000     0.207540000000     0.211360000000     0.0378015  
H79      H      0.508510000000     0.206670000000     0.136860000000     0.0378212  
H80      H      0.010250000000     0.305770000000     0.136850000000     0.0365642  
H81      H      0.058060000000     0.005380000000     0.470150000000     0.0376344  
H82      H      0.460690000000     0.507120000000     0.470180000000     0.0378193  
H83      H      0.459840000000     0.505390000000     0.544680000000     0.037812   
H84      H      0.058940000000     0.007130000000     0.544640000000     0.0376326  
H85      H      0.328260000000     0.381930000000     0.340900000000     0.0377554  
H86      H      0.385050000000     0.325150000000     0.340650000000     0.0377375  
H87      H      0.440460000000     0.380560000000     0.340890000000     0.0377234  
H88      H      0.383670000000     0.437340000000     0.340650000000     0.0377501  
H89      H      0.078260000000     0.131930000000     0.340870000000     0.036666   
H90      H      0.135050000000     0.075150000000     0.340630000000     0.0376627  
H91      H      0.190460000000     0.130560000000     0.340880000000     0.0377111  
H92      H      0.133680000000     0.187340000000     0.340640000000     0.0375312  
H93      H      0.508500000000     0.054940000000     0.211320000000     0.0378071  
H94      H      0.010220000000     0.457570000000     0.211330000000     0.0365555  
H95      H      0.008490000000     0.456710000000     0.136830000000     0.0358595  
H96      H      0.510240000000     0.055820000000     0.136830000000     0.0378048  
H97      H      0.316140000000     0.937330000000     0.674210000000     0.037846   
H98      H      0.202570000000     0.880540000000     0.673970000000     0.0377423  
H99      H      0.202570000000     0.825130000000     0.674200000000     0.037693   
H100     H      0.316140000000     0.881920000000     0.673960000000     0.0377935  
H101     H      0.316140000000     0.631920000000     0.673930000000     0.0377802  
H102     H      0.202570000000     0.575130000000     0.674170000000     0.0377002  
H103     H      0.202570000000     0.630550000000     0.673920000000     0.0377168  
H104     H      0.316140000000     0.687330000000     0.674160000000     0.0377899  
H105     H      0.452610000000     0.880580000000     0.673950000000     0.0377798  
H106     H      0.566180000000     0.937370000000     0.674190000000     0.037807   
H107     H      0.566190000000     0.881960000000     0.673940000000     0.0377599  
H108     H      0.452610000000     0.825170000000     0.674190000000     0.0377751  
H109     H      0.566180000000     0.631960000000     0.673940000000     0.0377422  
H110     H      0.452610000000     0.575170000000     0.674180000000     0.037772   
H111     H      0.452610000000     0.630580000000     0.673930000000     0.0377705  
H112     H      0.566190000000     0.687370000000     0.674170000000     0.0377442  
H113     H      0.308060000000     0.805770000000     0.877970000000     0.0381843  
H114     H      0.210690000000     0.706660000000     0.877970000000     0.0380455  
H115     H      0.209810000000     0.707530000000     0.803480000000     0.0378004  
H116     H      0.308920000000     0.804910000000     0.803480000000     0.0379347  
H117     H      0.210680000000     0.956710000000     0.878000000000     0.0380289  
H118     H      0.308040000000     0.555830000000     0.878000000000     0.0381651  
H119     H      0.308910000000     0.554950000000     0.803500000000     0.0379423  
H120     H      0.209800000000     0.957570000000     0.803500000000     0.0377994  
H121     H      0.383690000000     0.699440000000     0.007500000000     0.0375465  
H122     H      0.440480000000     0.813010000000     0.007260000000     0.0375502  
H123     H      0.385070000000     0.813010000000     0.007510000000     0.0375458  
H124     H      0.328280000000     0.699440000000     0.007270000000     0.0375545  
H125     H      0.135070000000     0.813010000000     0.007510000000     0.037483   
H126     H      0.078280000000     0.699440000000     0.007270000000     0.0364687  
H127     H      0.133690000000     0.699440000000     0.007510000000     0.0372914  
H128     H      0.190480000000     0.813010000000     0.007270000000     0.0375371  
H129     H      0.058080000000     0.805790000000     0.877980000000     0.0380496  
H130     H      0.460710000000     0.706680000000     0.877960000000     0.0381811  
H131     H      0.459840000000     0.707570000000     0.803460000000     0.0379131  
H132     H      0.058950000000     0.804940000000     0.803480000000     0.0377887  
H133     H      0.440470000000     0.563060000000     0.007290000000     0.03755    
H134     H      0.383690000000     0.949490000000     0.007510000000     0.0375285  
H135     H      0.328280000000     0.949490000000     0.007270000000     0.0375316  
H136     H      0.385060000000     0.563060000000     0.007530000000     0.0375443  
H137     H      0.135060000000     0.563060000000     0.007560000000     0.03748    
H138     H      0.078280000000     0.949490000000     0.007300000000     0.0364434  
H139     H      0.133690000000     0.949490000000     0.007550000000     0.0372689  
H140     H      0.190470000000     0.563060000000     0.007320000000     0.03754    
H141     H      0.460710000000     0.956730000000     0.877980000000     0.0381634  
H142     H      0.058080000000     0.555840000000     0.878000000000     0.0380098  
H143     H      0.058950000000     0.554970000000     0.803510000000     0.037817   
H144     H      0.459850000000     0.957590000000     0.803490000000     0.0379294  
H145     H      0.308040000000     0.755380000000     0.470140000000     0.0378303  
H146     H      0.210670000000     0.757120000000     0.470140000000     0.0377166  
H147     H      0.209800000000     0.755380000000     0.544640000000     0.0376513  
H148     H      0.308910000000     0.757110000000     0.544640000000     0.0378123  
H149     H      0.258500000000     0.804920000000     0.211290000000     0.0378506  
H150     H      0.260240000000     0.707550000000     0.211310000000     0.0378095  
H151     H      0.258510000000     0.706680000000     0.136820000000     0.037827   
H152     H      0.260240000000     0.805780000000     0.136800000000     0.0378211  
H153     H      0.308060000000     0.505350000000     0.470180000000     0.0378199  
H154     H      0.210680000000     0.007090000000     0.470150000000     0.0376328  
H155     H      0.209800000000     0.005350000000     0.544650000000     0.0376253  
H156     H      0.308920000000     0.507080000000     0.544680000000     0.0378093  
H157     H      0.258530000000     0.554950000000     0.211350000000     0.037816   
H158     H      0.260280000000     0.957590000000     0.211310000000     0.0378014  
H159     H      0.258540000000     0.956730000000     0.136820000000     0.0378123  
H160     H      0.260260000000     0.555830000000     0.136850000000     0.0378178  
H161     H      0.460720000000     0.757140000000     0.470140000000     0.0378324  
H162     H      0.058090000000     0.755410000000     0.470140000000     0.037703   
H163     H      0.058960000000     0.757150000000     0.544640000000     0.0376909  
H164     H      0.459850000000     0.755410000000     0.544630000000     0.0377905  
H165     H      0.440490000000     0.630560000000     0.340870000000     0.0377427  
H166     H      0.383700000000     0.687340000000     0.340630000000     0.0377248  
H167     H      0.328290000000     0.631930000000     0.340880000000     0.0377788  
H168     H      0.385080000000     0.575150000000     0.340640000000     0.0377545  
H169     H      0.135070000000     0.825150000000     0.340580000000     0.0376975  
H170     H      0.078290000000     0.881930000000     0.340820000000     0.0366658  
H171     H      0.133700000000     0.937340000000     0.340580000000     0.0375266  
H172     H      0.190490000000     0.880560000000     0.340830000000     0.0377686  
H173     H      0.008510000000     0.804910000000     0.211290000000     0.0358505  
H174     H      0.510240000000     0.707540000000     0.211300000000     0.0378048  
H175     H      0.508510000000     0.706670000000     0.136810000000     0.0378257  
H176     H      0.010240000000     0.805770000000     0.136800000000     0.0365802  
H177     H      0.058070000000     0.505390000000     0.470160000000     0.0376819  
H178     H      0.460690000000     0.007120000000     0.470160000000     0.0377885  
H179     H      0.459830000000     0.005390000000     0.544660000000     0.03776    
H180     H      0.058940000000     0.507130000000     0.544660000000     0.0376919  
H181     H      0.328260000000     0.881930000000     0.340850000000     0.0377952  
H182     H      0.385050000000     0.825150000000     0.340610000000     0.0377508  
H183     H      0.440460000000     0.880560000000     0.340850000000     0.0377429  
H184     H      0.383670000000     0.937340000000     0.340610000000     0.0378145  
H185     H      0.078260000000     0.631930000000     0.340860000000     0.0366742  
H186     H      0.135050000000     0.575150000000     0.340620000000     0.0376969  
H187     H      0.190460000000     0.630560000000     0.340850000000     0.037714   
H188     H      0.133680000000     0.687340000000     0.340610000000     0.0375042  
H189     H      0.508480000000     0.554940000000     0.211340000000     0.0378045  
H190     H      0.010230000000     0.957570000000     0.211310000000     0.036524   
H191     H      0.008500000000     0.956710000000     0.136820000000     0.0358709  
H192     H      0.510220000000     0.555810000000     0.136850000000     0.0378253  
H193     H      0.816140000000     0.437330000000     0.674240000000     0.0378887  
H194     H      0.702570000000     0.380540000000     0.674000000000     0.0377391  
H195     H      0.702570000000     0.325130000000     0.674250000000     0.0377459  
H196     H      0.816140000000     0.381920000000     0.674000000000     0.0378842  
H197     H      0.816140000000     0.131920000000     0.673940000000     0.0378664  
H198     H      0.702570000000     0.075130000000     0.674180000000     0.0376968  
H199     H      0.702570000000     0.130540000000     0.673950000000     0.037736   
H200     H      0.816140000000     0.187330000000     0.674190000000     0.0378898  
H201     H      0.952610000000     0.380580000000     0.673990000000     0.0372917  
H202     H      0.066190000000     0.437370000000     0.674230000000     0.0377779  
H203     H      0.066190000000     0.381960000000     0.674000000000     0.0377755  
H204     H      0.952610000000     0.325170000000     0.674240000000     0.0372936  
H205     H      0.066190000000     0.131960000000     0.673950000000     0.0377772  
H206     H      0.952610000000     0.075170000000     0.674200000000     0.0372575  
H207     H      0.952610000000     0.130580000000     0.673970000000     0.0372831  
H208     H      0.066190000000     0.187370000000     0.674200000000     0.0377826  
H209     H      0.808060000000     0.305770000000     0.878010000000     0.0383574  
H210     H      0.710690000000     0.206660000000     0.878020000000     0.0381385  
H211     H      0.709810000000     0.207530000000     0.803520000000     0.0379151  
H212     H      0.808920000000     0.304910000000     0.803520000000     0.0381309  
H213     H      0.710670000000     0.456720000000     0.878000000000     0.0381426  
H214     H      0.808050000000     0.055820000000     0.877970000000     0.0383562  
H215     H      0.808910000000     0.054940000000     0.803480000000     0.0381342  
H216     H      0.709800000000     0.457580000000     0.803510000000     0.0379138  
H217     H      0.883700000000     0.199440000000     0.007560000000     0.0378334  
H218     H      0.940490000000     0.313010000000     0.007310000000     0.0390982  
H219     H      0.885080000000     0.313010000000     0.007560000000     0.0380702  
H220     H      0.828290000000     0.199440000000     0.007320000000     0.037672   
H221     H      0.635080000000     0.313010000000     0.007560000000     0.0375249  
H222     H      0.578290000000     0.199440000000     0.007320000000     0.037541   
H223     H      0.633700000000     0.199440000000     0.007560000000     0.0375354  
H224     H      0.690490000000     0.313010000000     0.007320000000     0.0375522  
H225     H      0.558080000000     0.305790000000     0.878030000000     0.0381492  
H226     H      0.960710000000     0.206680000000     0.878010000000     0.0379032  
H227     H      0.959840000000     0.207560000000     0.803520000000     0.0377076  
H228     H      0.558950000000     0.304930000000     0.803530000000     0.0379249  
H229     H      0.940480000000     0.063060000000     0.007270000000     0.0390952  
H230     H      0.883680000000     0.449490000000     0.007520000000     0.0378352  
H231     H      0.828270000000     0.449490000000     0.007280000000     0.0376865  
H232     H      0.885070000000     0.063060000000     0.007510000000     0.0380829  
H233     H      0.635070000000     0.063060000000     0.007540000000     0.0375316  
H234     H      0.578270000000     0.449490000000     0.007310000000     0.0375548  
H235     H      0.633680000000     0.449490000000     0.007550000000     0.0375295  
H236     H      0.690480000000     0.063060000000     0.007300000000     0.0375556  
H237     H      0.960700000000     0.456730000000     0.878000000000     0.0378644  
H238     H      0.558080000000     0.055830000000     0.877990000000     0.038151   
H239     H      0.558960000000     0.054960000000     0.803490000000     0.0379084  
H240     H      0.959840000000     0.457600000000     0.803500000000     0.0377549  
H241     H      0.808040000000     0.255380000000     0.470190000000     0.0380257  
H242     H      0.710670000000     0.257120000000     0.470190000000     0.0378166  
H243     H      0.709800000000     0.255380000000     0.544680000000     0.0377668  
H244     H      0.808910000000     0.257110000000     0.544680000000     0.0379943  
H245     H      0.758510000000     0.304920000000     0.211340000000     0.0379541  
H246     H      0.760240000000     0.207550000000     0.211360000000     0.0379582  
H247     H      0.758510000000     0.206680000000     0.136860000000     0.0379368  
H248     H      0.760250000000     0.305780000000     0.136840000000     0.0379455  
H249     H      0.808050000000     0.005350000000     0.470160000000     0.0379758  
H250     H      0.710690000000     0.507090000000     0.470160000000     0.0378035  
H251     H      0.709810000000     0.505350000000     0.544660000000     0.037806   
H252     H      0.808910000000     0.007080000000     0.544660000000     0.0379581  
H253     H      0.758540000000     0.054960000000     0.211330000000     0.0379349  
H254     H      0.760260000000     0.457580000000     0.211320000000     0.0379379  
H255     H      0.758530000000     0.456720000000     0.136830000000     0.0379442  
H256     H      0.760280000000     0.055830000000     0.136830000000     0.0379591  
H257     H      0.960720000000     0.257140000000     0.470190000000     0.0375419  
H258     H      0.558090000000     0.255400000000     0.470190000000     0.0377667  
H259     H      0.558960000000     0.257150000000     0.544680000000     0.0378158  
H260     H      0.959850000000     0.255410000000     0.544680000000     0.0376037  
H261     H      0.940490000000     0.130560000000     0.340910000000     0.0392728  
H262     H      0.883700000000     0.187340000000     0.340660000000     0.0380378  
H263     H      0.828290000000     0.131930000000     0.340900000000     0.0378825  
H264     H      0.885070000000     0.075150000000     0.340660000000     0.0382655  
H265     H      0.635080000000     0.325150000000     0.340620000000     0.0377286  
H266     H      0.578290000000     0.381930000000     0.340860000000     0.0377235  
H267     H      0.633700000000     0.437340000000     0.340620000000     0.0377084  
H268     H      0.690490000000     0.380560000000     0.340860000000     0.0377856  
H269     H      0.508510000000     0.304910000000     0.211340000000     0.0378416  
H270     H      0.010250000000     0.207540000000     0.211360000000     0.0365489  
H271     H      0.008510000000     0.206670000000     0.136860000000     0.0358667  
H272     H      0.510250000000     0.305770000000     0.136850000000     0.0378234  
H273     H      0.558060000000     0.005380000000     0.470150000000     0.0377294  
H274     H      0.960690000000     0.507120000000     0.470180000000     0.0375384  
H275     H      0.959840000000     0.505390000000     0.544680000000     0.0376017  
H276     H      0.558940000000     0.007130000000     0.544640000000     0.0377438  
H277     H      0.828260000000     0.381930000000     0.340890000000     0.0378644  
H278     H      0.885050000000     0.325150000000     0.340650000000     0.0382657  
H279     H      0.940460000000     0.380560000000     0.340890000000     0.0392742  
H280     H      0.883670000000     0.437340000000     0.340650000000     0.0380357  
H281     H      0.578260000000     0.131930000000     0.340870000000     0.0377555  
H282     H      0.635050000000     0.075150000000     0.340630000000     0.0376821  
H283     H      0.690460000000     0.130560000000     0.340880000000     0.037741   
H284     H      0.633670000000     0.187340000000     0.340630000000     0.0377411  
H285     H      0.008500000000     0.054940000000     0.211330000000     0.0358598  
H286     H      0.510220000000     0.457570000000     0.211330000000     0.0378083  
H287     H      0.508490000000     0.456710000000     0.136830000000     0.0378206  
H288     H      0.010240000000     0.055820000000     0.136830000000     0.0365432  
H289     H      0.816140000000     0.937330000000     0.674200000000     0.0379529  
H290     H      0.702570000000     0.880540000000     0.673960000000     0.0377366  
H291     H      0.702570000000     0.825130000000     0.674200000000     0.037752   
H292     H      0.816140000000     0.881920000000     0.673950000000     0.0378871  
H293     H      0.816140000000     0.631920000000     0.673930000000     0.0378686  
H294     H      0.702570000000     0.575130000000     0.674170000000     0.0377393  
H295     H      0.702570000000     0.630540000000     0.673920000000     0.0377402  
H296     H      0.816140000000     0.687330000000     0.674160000000     0.0378864  
H297     H      0.952610000000     0.880580000000     0.673950000000     0.0372968  
H298     H      0.066180000000     0.937370000000     0.674190000000     0.0378397  
H299     H      0.066190000000     0.881960000000     0.673940000000     0.0377879  
H300     H      0.952610000000     0.825170000000     0.674190000000     0.037294   
H301     H      0.066190000000     0.631960000000     0.673940000000     0.0377769  
H302     H      0.952610000000     0.575170000000     0.674180000000     0.03729    
H303     H      0.952610000000     0.630580000000     0.673930000000     0.0372889  
H304     H      0.066190000000     0.687370000000     0.674170000000     0.0377811  
H305     H      0.808060000000     0.805770000000     0.877960000000     0.0383738  
H306     H      0.710690000000     0.706660000000     0.877970000000     0.0381381  
H307     H      0.709810000000     0.707530000000     0.803480000000     0.0379039  
H308     H      0.808920000000     0.804910000000     0.803470000000     0.0381151  
H309     H      0.710680000000     0.956710000000     0.878000000000     0.0381366  
H310     H      0.808040000000     0.555830000000     0.877990000000     0.038361   
H311     H      0.808910000000     0.554950000000     0.803500000000     0.0381145  
H312     H      0.709800000000     0.957570000000     0.803500000000     0.0378988  
H313     H      0.883690000000     0.699440000000     0.007500000000     0.0378318  
H314     H      0.940480000000     0.813010000000     0.007260000000     0.0390982  
H315     H      0.885070000000     0.813010000000     0.007510000000     0.0380653  
H316     H      0.828280000000     0.699440000000     0.007260000000     0.037664   
H317     H      0.635070000000     0.813010000000     0.007510000000     0.0375221  
H318     H      0.578280000000     0.699440000000     0.007260000000     0.037533   
H319     H      0.633690000000     0.699440000000     0.007510000000     0.0375196  
H320     H      0.690480000000     0.813010000000     0.007270000000     0.0375574  
H321     H      0.558080000000     0.805790000000     0.877980000000     0.0381544  
H322     H      0.960710000000     0.706680000000     0.877960000000     0.0379046  
H323     H      0.959840000000     0.707570000000     0.803460000000     0.037709   
H324     H      0.558950000000     0.804940000000     0.803480000000     0.0379122  
H325     H      0.940470000000     0.563060000000     0.007290000000     0.0391042  
H326     H      0.883690000000     0.949490000000     0.007510000000     0.037811   
H327     H      0.828280000000     0.949490000000     0.007260000000     0.0376436  
H328     H      0.885060000000     0.563060000000     0.007520000000     0.0380578  
H329     H      0.635060000000     0.563060000000     0.007560000000     0.0375255  
H330     H      0.578280000000     0.949490000000     0.007300000000     0.0375129  
H331     H      0.633690000000     0.949490000000     0.007540000000     0.0374963  
H332     H      0.690470000000     0.563060000000     0.007320000000     0.0375567  
H333     H      0.960710000000     0.956730000000     0.877990000000     0.037897   
H334     H      0.558080000000     0.555840000000     0.878000000000     0.0381484  
H335     H      0.558950000000     0.554970000000     0.803510000000     0.0379038  
H336     H      0.959850000000     0.957590000000     0.803490000000     0.037714   
H337     H      0.808040000000     0.755380000000     0.470140000000     0.0380123  
H338     H      0.710670000000     0.757120000000     0.470140000000     0.0378184  
H339     H      0.709800000000     0.755380000000     0.544640000000     0.0377672  
H340     H      0.808910000000     0.757110000000     0.544640000000     0.0380151  
H341     H      0.758500000000     0.804920000000     0.211290000000     0.0379479  
H342     H      0.760240000000     0.707550000000     0.211310000000     0.0379449  
H343     H      0.758510000000     0.706680000000     0.136820000000     0.0379415  
H344     H      0.760240000000     0.805780000000     0.136800000000     0.037949   
H345     H      0.808060000000     0.505350000000     0.470180000000     0.0380084  
H346     H      0.710680000000     0.007090000000     0.470150000000     0.0377615  
H347     H      0.709800000000     0.005350000000     0.544640000000     0.0377044  
H348     H      0.808920000000     0.507080000000     0.544670000000     0.0380009  
H349     H      0.758530000000     0.554950000000     0.211340000000     0.0379298  
H350     H      0.760280000000     0.957590000000     0.211310000000     0.0379385  
H351     H      0.758540000000     0.956730000000     0.136820000000     0.0379192  
H352     H      0.760260000000     0.555830000000     0.136850000000     0.0379319  
H353     H      0.960720000000     0.757140000000     0.470140000000     0.0375603  
H354     H      0.558090000000     0.755410000000     0.470140000000     0.0378109  
H355     H      0.558960000000     0.757150000000     0.544640000000     0.0378045  
H356     H      0.959850000000     0.755410000000     0.544630000000     0.0375716  
H357     H      0.940490000000     0.630560000000     0.340870000000     0.0392953  
H358     H      0.883700000000     0.687340000000     0.340630000000     0.0380216  
H359     H      0.828290000000     0.631930000000     0.340880000000     0.0378878  
H360     H      0.885080000000     0.575150000000     0.340640000000     0.0382775  
H361     H      0.635080000000     0.825150000000     0.340580000000     0.0377363  
H362     H      0.578290000000     0.881930000000     0.340820000000     0.0377379  
H363     H      0.633700000000     0.937340000000     0.340580000000     0.0377534  
H364     H      0.690490000000     0.880560000000     0.340820000000     0.037758   
H365     H      0.508510000000     0.804910000000     0.211290000000     0.037837   
H366     H      0.010240000000     0.707540000000     0.211310000000     0.0365436  
H367     H      0.008510000000     0.706670000000     0.136810000000     0.035868   
H368     H      0.510240000000     0.805770000000     0.136800000000     0.0378104  
H369     H      0.558070000000     0.505390000000     0.470160000000     0.0377974  
H370     H      0.960690000000     0.007120000000     0.470160000000     0.0375086  
H371     H      0.959830000000     0.005390000000     0.544660000000     0.0375478  
H372     H      0.558940000000     0.507130000000     0.544660000000     0.0378067  
H373     H      0.828260000000     0.881930000000     0.340840000000     0.0378514  
H374     H      0.885050000000     0.825150000000     0.340600000000     0.0382838  
H375     H      0.940460000000     0.880560000000     0.340850000000     0.0392849  
H376     H      0.883670000000     0.937340000000     0.340610000000     0.0381129  
H377     H      0.578260000000     0.631930000000     0.340860000000     0.0377671  
H378     H      0.635050000000     0.575150000000     0.340620000000     0.0377176  
H379     H      0.690460000000     0.630560000000     0.340850000000     0.0377419  
H380     H      0.633670000000     0.687340000000     0.340610000000     0.0377136  
H381     H      0.008480000000     0.554940000000     0.211340000000     0.0358489  
H382     H      0.510230000000     0.957570000000     0.211310000000     0.0378033  
H383     H      0.508500000000     0.956710000000     0.136820000000     0.0377859  
H384     H      0.010220000000     0.555810000000     0.136850000000     0.0365567  
N1       N      0.259360000000     0.413340000000     0.674120000000    -0.175411   
N2       N      0.259360000000     0.349130000000     0.674130000000    -0.175352   
N3       N      0.259360000000     0.099130000000     0.674060000000    -0.175398   
N4       N      0.259360000000     0.163340000000     0.674080000000    -0.17541    
N5       N      0.509400000000     0.413380000000     0.674110000000    -0.175411   
N6       N      0.509400000000     0.349160000000     0.674110000000    -0.175431   
N7       N      0.509400000000     0.099160000000     0.674070000000    -0.175424   
N8       N      0.509400000000     0.163380000000     0.674080000000    -0.17541    
N9       N      0.259380000000     0.256220000000     0.883530000000    -0.175699   
N10      N      0.259370000000     0.256220000000     0.798010000000    -0.175886   
N11      N      0.259360000000     0.006270000000     0.883500000000    -0.175814   
N12      N      0.259360000000     0.006250000000     0.797980000000    -0.17597    
N13      N      0.416490000000     0.256220000000     0.007440000000    -0.175414   
N14      N      0.352280000000     0.256220000000     0.007440000000    -0.175454   
N15      N      0.102280000000     0.256220000000     0.007440000000    -0.175722   
N16      N      0.166490000000     0.256220000000     0.007440000000    -0.175421   
N17      N      0.509400000000     0.256240000000     0.883530000000    -0.175646   
N18      N      0.509400000000     0.256250000000     0.798010000000    -0.175858   
N19      N      0.416490000000     0.006280000000     0.007390000000    -0.175561   
N20      N      0.352280000000     0.006280000000     0.007390000000    -0.175569   
N21      N      0.102280000000     0.006280000000     0.007420000000    -0.175835   
N22      N      0.166490000000     0.006280000000     0.007420000000    -0.1756     
N23      N      0.509400000000     0.006280000000     0.883500000000    -0.175801   
N24      N      0.509400000000     0.006280000000     0.797980000000    -0.175926   
N25      N      0.259360000000     0.256250000000     0.464680000000    -0.175838   
N26      N      0.259350000000     0.256250000000     0.550200000000    -0.17593    
N27      N      0.259370000000     0.256240000000     0.216860000000    -0.175855   
N28      N      0.259380000000     0.256230000000     0.131340000000    -0.17586    
N29      N      0.259360000000     0.006220000000     0.464650000000    -0.175872   
N30      N      0.259360000000     0.006220000000     0.550170000000    -0.175886   
N31      N      0.259410000000     0.006270000000     0.216830000000    -0.175966   
N32      N      0.259400000000     0.006280000000     0.131310000000    -0.175969   
N33      N      0.509400000000     0.256270000000     0.464680000000    -0.175909   
N34      N      0.509400000000     0.256280000000     0.550200000000    -0.175866   
N35      N      0.416490000000     0.163350000000     0.340780000000    -0.175418   
N36      N      0.352280000000     0.099140000000     0.340780000000    -0.175411   
N37      N      0.102280000000     0.349140000000     0.340750000000    -0.175719   
N38      N      0.166490000000     0.413350000000     0.340740000000    -0.175382   
N39      N      0.509380000000     0.256220000000     0.216860000000    -0.175818   
N40      N      0.509380000000     0.256220000000     0.131340000000    -0.175843   
N41      N      0.509370000000     0.006250000000     0.464640000000    -0.175848   
N42      N      0.509380000000     0.006260000000     0.550170000000    -0.17586    
N43      N      0.352260000000     0.349140000000     0.340770000000    -0.175408   
N44      N      0.416470000000     0.413350000000     0.340770000000    -0.175478   
N45      N      0.102250000000     0.099140000000     0.340750000000    -0.175695   
N46      N      0.166470000000     0.163350000000     0.340760000000    -0.175395   
N47      N      0.509360000000     0.006260000000     0.216830000000    -0.175985   
N48      N      0.509370000000     0.006270000000     0.131310000000    -0.175991   
N49      N      0.259360000000     0.913340000000     0.674090000000    -0.175299   
N50      N      0.259360000000     0.849130000000     0.674080000000    -0.175366   
N51      N      0.259360000000     0.599130000000     0.674050000000    -0.175421   
N52      N      0.259360000000     0.663340000000     0.674040000000    -0.175411   
N53      N      0.509400000000     0.913380000000     0.674070000000    -0.175396   
N54      N      0.509400000000     0.849160000000     0.674060000000    -0.175431   
N55      N      0.509400000000     0.599170000000     0.674060000000    -0.175355   
N56      N      0.509400000000     0.663380000000     0.674050000000    -0.175412   
N57      N      0.259380000000     0.756220000000     0.883480000000    -0.175643   
N58      N      0.259370000000     0.756220000000     0.797960000000    -0.17589    
N59      N      0.259360000000     0.506270000000     0.883510000000    -0.175698   
N60      N      0.259350000000     0.506260000000     0.797990000000    -0.175916   
N61      N      0.416490000000     0.756220000000     0.007380000000    -0.175454   
N62      N      0.352280000000     0.756220000000     0.007390000000    -0.175407   
N63      N      0.102280000000     0.756220000000     0.007390000000    -0.175682   
N64      N      0.166490000000     0.756220000000     0.007390000000    -0.17546    
N65      N      0.509390000000     0.756240000000     0.883480000000    -0.175693   
N66      N      0.509390000000     0.756250000000     0.797960000000    -0.175883   
N67      N      0.416480000000     0.506280000000     0.007410000000    -0.175453   
N68      N      0.352270000000     0.506280000000     0.007400000000    -0.175381   
N69      N      0.102270000000     0.506280000000     0.007440000000    -0.175642   
N70      N      0.166480000000     0.506280000000     0.007440000000    -0.175455   
N71      N      0.509390000000     0.506280000000     0.883510000000    -0.17567    
N72      N      0.509400000000     0.506280000000     0.797990000000    -0.17588    
N73      N      0.259360000000     0.756250000000     0.464630000000    -0.175899   
N74      N      0.259350000000     0.756250000000     0.550150000000    -0.175969   
N75      N      0.259370000000     0.756230000000     0.216820000000    -0.175865   
N76      N      0.259380000000     0.756230000000     0.131300000000    -0.175799   
N77      N      0.259370000000     0.506230000000     0.464660000000    -0.175914   
N78      N      0.259360000000     0.506210000000     0.550180000000    -0.175888   
N79      N      0.259400000000     0.506270000000     0.216850000000    -0.175913   
N80      N      0.259390000000     0.506270000000     0.131330000000    -0.175832   
N81      N      0.509400000000     0.756270000000     0.464620000000    -0.175912   
N82      N      0.509400000000     0.756280000000     0.550140000000    -0.175871   
N83      N      0.416490000000     0.663350000000     0.340750000000    -0.175415   
N84      N      0.352280000000     0.599140000000     0.340760000000    -0.175399   
N85      N      0.102280000000     0.849140000000     0.340700000000    -0.175707   
N86      N      0.166490000000     0.913350000000     0.340710000000    -0.175415   
N87      N      0.509370000000     0.756220000000     0.216810000000    -0.175856   
N88      N      0.509370000000     0.756220000000     0.131290000000    -0.17585    
N89      N      0.509380000000     0.506250000000     0.464660000000    -0.175878   
N90      N      0.509390000000     0.506260000000     0.550180000000    -0.175924   
N91      N      0.352260000000     0.849140000000     0.340730000000    -0.175344   
N92      N      0.416470000000     0.913350000000     0.340730000000    -0.175379   
N93      N      0.102250000000     0.599140000000     0.340740000000    -0.17568    
N94      N      0.166470000000     0.663350000000     0.340730000000    -0.175451   
N95      N      0.509350000000     0.506250000000     0.216850000000    -0.175901   
N96      N      0.509360000000     0.506260000000     0.131330000000    -0.175792   
N97      N      0.759360000000     0.413340000000     0.674120000000    -0.175402   
N98      N      0.759360000000     0.349120000000     0.674120000000    -0.175417   
N99      N      0.759360000000     0.099130000000     0.674060000000    -0.175399   
N100     N      0.759360000000     0.163340000000     0.674070000000    -0.175397   
N101     N      0.009400000000     0.413380000000     0.674110000000    -0.178706   
N102     N      0.009400000000     0.349160000000     0.674120000000    -0.178711   
N103     N      0.009400000000     0.099160000000     0.674070000000    -0.178711   
N104     N      0.009400000000     0.163380000000     0.674090000000    -0.178696   
N105     N      0.759380000000     0.256220000000     0.883530000000    -0.175737   
N106     N      0.759370000000     0.256220000000     0.798010000000    -0.1758     
N107     N      0.759360000000     0.006270000000     0.883500000000    -0.175798   
N108     N      0.759360000000     0.006250000000     0.797980000000    -0.175943   
N109     N      0.916500000000     0.256220000000     0.007430000000    -0.175046   
N110     N      0.852280000000     0.256220000000     0.007440000000    -0.175392   
N111     N      0.602280000000     0.256220000000     0.007440000000    -0.175462   
N112     N      0.666490000000     0.256220000000     0.007440000000    -0.175399   
N113     N      0.009400000000     0.256240000000     0.883530000000    -0.178938   
N114     N      0.009400000000     0.256250000000     0.798010000000    -0.179151   
N115     N      0.916490000000     0.006280000000     0.007390000000    -0.175174   
N116     N      0.852280000000     0.006280000000     0.007390000000    -0.175488   
N117     N      0.602280000000     0.006280000000     0.007420000000    -0.175556   
N118     N      0.666490000000     0.006280000000     0.007420000000    -0.175605   
N119     N      0.009400000000     0.006280000000     0.883500000000    -0.179081   
N120     N      0.009400000000     0.006280000000     0.797980000000    -0.179197   
N121     N      0.759360000000     0.256250000000     0.464670000000    -0.175849   
N122     N      0.759350000000     0.256240000000     0.550190000000    -0.1759     
N123     N      0.759370000000     0.256240000000     0.216860000000    -0.175822   
N124     N      0.759380000000     0.256230000000     0.131340000000    -0.175829   
N125     N      0.759360000000     0.006220000000     0.464640000000    -0.175849   
N126     N      0.759360000000     0.006220000000     0.550160000000    -0.175846   
N127     N      0.759410000000     0.006270000000     0.216830000000    -0.175976   
N128     N      0.759410000000     0.006280000000     0.131310000000    -0.17591    
N129     N      0.009400000000     0.256270000000     0.464680000000    -0.179166   
N130     N      0.009400000000     0.256280000000     0.550200000000    -0.179207   
N131     N      0.916500000000     0.163350000000     0.340780000000    -0.174999   
N132     N      0.852280000000     0.099140000000     0.340770000000    -0.175342   
N133     N      0.602280000000     0.349140000000     0.340750000000    -0.175418   
N134     N      0.666490000000     0.413350000000     0.340740000000    -0.175425   
N135     N      0.009380000000     0.256230000000     0.216860000000    -0.17468    
N136     N      0.009380000000     0.256220000000     0.131340000000    -0.174673   
N137     N      0.009370000000     0.006250000000     0.464650000000    -0.179086   
N138     N      0.009380000000     0.006260000000     0.550170000000    -0.17914    
N139     N      0.852260000000     0.349140000000     0.340770000000    -0.175354   
N140     N      0.916470000000     0.413350000000     0.340770000000    -0.175062   
N141     N      0.602260000000     0.099140000000     0.340750000000    -0.175396   
N142     N      0.666470000000     0.163350000000     0.340760000000    -0.175393   
N143     N      0.009360000000     0.006260000000     0.216830000000    -0.174818   
N144     N      0.009370000000     0.006270000000     0.131310000000    -0.174776   
N145     N      0.759350000000     0.913340000000     0.674080000000    -0.175378   
N146     N      0.759360000000     0.849120000000     0.674070000000    -0.175419   
N147     N      0.759360000000     0.599130000000     0.674050000000    -0.175354   
N148     N      0.759360000000     0.663340000000     0.674040000000    -0.175399   
N149     N      0.009400000000     0.913380000000     0.674070000000    -0.178684   
N150     N      0.009400000000     0.849160000000     0.674060000000    -0.178707   
N151     N      0.009400000000     0.599160000000     0.674060000000    -0.178706   
N152     N      0.009400000000     0.663380000000     0.674050000000    -0.178701   
N153     N      0.759370000000     0.756220000000     0.883480000000    -0.175682   
N154     N      0.759370000000     0.756220000000     0.797960000000    -0.175869   
N155     N      0.759360000000     0.506270000000     0.883510000000    -0.175682   
N156     N      0.759350000000     0.506260000000     0.797990000000    -0.175892   
N157     N      0.916490000000     0.756220000000     0.007380000000    -0.175033   
N158     N      0.852280000000     0.756220000000     0.007390000000    -0.175332   
N159     N      0.602280000000     0.756220000000     0.007390000000    -0.175413   
N160     N      0.666490000000     0.756220000000     0.007390000000    -0.175462   
N161     N      0.009390000000     0.756240000000     0.883480000000    -0.178989   
N162     N      0.009400000000     0.756250000000     0.797960000000    -0.179182   
N163     N      0.916480000000     0.506280000000     0.007400000000    -0.175027   
N164     N      0.852270000000     0.506280000000     0.007400000000    -0.175352   
N165     N      0.602260000000     0.506280000000     0.007430000000    -0.175448   
N166     N      0.666480000000     0.506280000000     0.007440000000    -0.175411   
N167     N      0.009390000000     0.506280000000     0.883510000000    -0.178994   
N168     N      0.009400000000     0.506280000000     0.797990000000    -0.179128   
N169     N      0.759360000000     0.756250000000     0.464630000000    -0.17585    
N170     N      0.759350000000     0.756250000000     0.550150000000    -0.175943   
N171     N      0.759370000000     0.756240000000     0.216810000000    -0.175787   
N172     N      0.759380000000     0.756230000000     0.131290000000    -0.17581    
N173     N      0.759370000000     0.506220000000     0.464660000000    -0.175827   
N174     N      0.759360000000     0.506210000000     0.550180000000    -0.175874   
N175     N      0.759400000000     0.506270000000     0.216840000000    -0.175809   
N176     N      0.759390000000     0.506270000000     0.131320000000    -0.175864   
N177     N      0.009400000000     0.756270000000     0.464620000000    -0.179207   
N178     N      0.009400000000     0.756280000000     0.550150000000    -0.179249   
N179     N      0.916490000000     0.663350000000     0.340750000000    -0.174957   
N180     N      0.852280000000     0.599140000000     0.340760000000    -0.175335   
N181     N      0.602280000000     0.849140000000     0.340700000000    -0.175442   
N182     N      0.666490000000     0.913350000000     0.340700000000    -0.175447   
N183     N      0.009370000000     0.756220000000     0.216810000000    -0.174713   
N184     N      0.009380000000     0.756220000000     0.131290000000    -0.174651   
N185     N      0.009380000000     0.506250000000     0.464660000000    -0.179232   
N186     N      0.009390000000     0.506260000000     0.550180000000    -0.179201   
N187     N      0.852250000000     0.849140000000     0.340720000000    -0.175387   
N188     N      0.916470000000     0.913350000000     0.340730000000    -0.174957   
N189     N      0.602260000000     0.599140000000     0.340740000000    -0.175379   
N190     N      0.666470000000     0.663350000000     0.340730000000    -0.175451   
N191     N      0.009350000000     0.506250000000     0.216850000000    -0.174706   
N192     N      0.009360000000     0.506260000000     0.131330000000    -0.174619   
O1       O      0.021960000000     0.489330000000     0.278470000000    -0.392342   
O2       O      0.026290000000     0.493650000000     0.403030000000    -0.392564   
O3       O      0.477530000000     0.444880000000     0.342790000000    -0.395453   
O4       O      0.070730000000     0.038080000000     0.338700000000    -0.394413   
O5       O      0.041190000000     0.067620000000     0.342780000000    -0.40166    
O6       O      0.447990000000     0.474410000000     0.338730000000    -0.395334   
O7       O      0.492450000000     0.018850000000     0.403020000000    -0.394713   
O8       O      0.496760000000     0.023170000000     0.278460000000    -0.394649   
O9       O      0.496780000000     0.273150000000     0.278490000000    -0.394691   
O10      O      0.492480000000     0.268860000000     0.403040000000    -0.394857   
O11      O      0.041220000000     0.317620000000     0.342790000000    -0.40172    
O12      O      0.448010000000     0.224410000000     0.338740000000    -0.395252   
O13      O      0.477550000000     0.194870000000     0.342820000000    -0.39542    
O14      O      0.070760000000     0.288080000000     0.338730000000    -0.394172   
O15      O      0.026310000000     0.243650000000     0.403050000000    -0.392627   
O16      O      0.021980000000     0.239320000000     0.278500000000    -0.392477   
O17      O      0.272000000000     0.489340000000     0.278470000000    -0.394601   
O18      O      0.276300000000     0.493630000000     0.403030000000    -0.394648   
O19      O      0.227560000000     0.444880000000     0.342780000000    -0.395446   
O20      O      0.320760000000     0.038080000000     0.338720000000    -0.395478   
O21      O      0.291220000000     0.067620000000     0.342790000000    -0.395246   
O22      O      0.198010000000     0.474410000000     0.338710000000    -0.395291   
O23      O      0.242460000000     0.018830000000     0.403020000000    -0.394794   
O24      O      0.246800000000     0.023180000000     0.278460000000    -0.394742   
O25      O      0.242440000000     0.268850000000     0.403050000000    -0.39473    
O26      O      0.246770000000     0.273160000000     0.278490000000    -0.394701   
O27      O      0.197990000000     0.224410000000     0.338730000000    -0.395477   
O28      O      0.291190000000     0.317620000000     0.342800000000    -0.395321   
O29      O      0.320730000000     0.288080000000     0.338740000000    -0.39533    
O30      O      0.227530000000     0.194870000000     0.342810000000    -0.395265   
O31      O      0.271970000000     0.239330000000     0.278500000000    -0.394758   
O32      O      0.276270000000     0.243640000000     0.403050000000    -0.394791   
O33      O      0.496760000000     0.476750000000     0.069700000000    -0.394424   
O34      O      0.492470000000     0.476760000000     0.945140000000    -0.393014   
O35      O      0.041200000000     0.476740000000     0.005390000000    -0.401973   
O36      O      0.448000000000     0.476740000000     0.009440000000    -0.395482   
O37      O      0.477550000000     0.035820000000     0.005360000000    -0.395383   
O38      O      0.070760000000     0.035810000000     0.009450000000    -0.39442    
O39      O      0.026310000000     0.035800000000     0.945130000000    -0.390744   
O40      O      0.021980000000     0.035790000000     0.069690000000    -0.392074   
O41      O      0.496780000000     0.226700000000     0.069710000000    -0.394375   
O42      O      0.492480000000     0.226710000000     0.945160000000    -0.393069   
O43      O      0.041220000000     0.226680000000     0.005400000000    -0.401846   
O44      O      0.448010000000     0.226680000000     0.009470000000    -0.395479   
O45      O      0.477550000000     0.285760000000     0.005400000000    -0.395528   
O46      O      0.070760000000     0.285760000000     0.009480000000    -0.394263   
O47      O      0.026310000000     0.285750000000     0.945160000000    -0.39083    
O48      O      0.021990000000     0.285740000000     0.069720000000    -0.39216    
O49      O      0.272000000000     0.035800000000     0.069690000000    -0.394277   
O50      O      0.276290000000     0.035790000000     0.945120000000    -0.392907   
O51      O      0.227550000000     0.035810000000     0.005380000000    -0.395508   
O52      O      0.320760000000     0.035810000000     0.009430000000    -0.395528   
O53      O      0.291200000000     0.476740000000     0.005370000000    -0.395585   
O54      O      0.198000000000     0.476740000000     0.009470000000    -0.395439   
O55      O      0.242450000000     0.476760000000     0.945140000000    -0.393165   
O56      O      0.246780000000     0.476760000000     0.069700000000    -0.394569   
O57      O      0.246780000000     0.226710000000     0.069720000000    -0.394419   
O58      O      0.242470000000     0.226700000000     0.945160000000    -0.393069   
O59      O      0.291220000000     0.226680000000     0.005400000000    -0.395421   
O60      O      0.198010000000     0.226680000000     0.009480000000    -0.395529   
O61      O      0.227550000000     0.285760000000     0.005400000000    -0.395535   
O62      O      0.320760000000     0.285760000000     0.009470000000    -0.395386   
O63      O      0.276300000000     0.285730000000     0.945160000000    -0.393178   
O64      O      0.271990000000     0.285750000000     0.069710000000    -0.394367   
O65      O      0.479860000000     0.444900000000     0.672060000000    -0.395269   
O66      O      0.479860000000     0.038100000000     0.676110000000    -0.395569   
O67      O      0.479880000000     0.493660000000     0.611810000000    -0.394795   
O68      O      0.479880000000     0.489370000000     0.736370000000    -0.394672   
O69      O      0.038920000000     0.023190000000     0.736350000000    -0.392164   
O70      O      0.038910000000     0.018870000000     0.611790000000    -0.39222    
O71      O      0.038940000000     0.067640000000     0.672030000000    -0.39292    
O72      O      0.038940000000     0.474440000000     0.676130000000    -0.392864   
O73      O      0.479860000000     0.194900000000     0.672060000000    -0.395283   
O74      O      0.479860000000     0.288100000000     0.676150000000    -0.395389   
O75      O      0.479880000000     0.243680000000     0.611820000000    -0.394703   
O76      O      0.479880000000     0.239350000000     0.736380000000    -0.39458    
O77      O      0.038920000000     0.273180000000     0.736390000000    -0.392145   
O78      O      0.038920000000     0.268880000000     0.611830000000    -0.392326   
O79      O      0.038940000000     0.317640000000     0.672080000000    -0.392964   
O80      O      0.038940000000     0.224440000000     0.676130000000    -0.392848   
O81      O      0.229820000000     0.444860000000     0.672070000000    -0.395271   
O82      O      0.229820000000     0.038060000000     0.676100000000    -0.395691   
O83      O      0.229840000000     0.493620000000     0.611800000000    -0.3947     
O84      O      0.229840000000     0.489330000000     0.736370000000    -0.39486    
O85      O      0.288870000000     0.023160000000     0.736350000000    -0.394744   
O86      O      0.288870000000     0.018830000000     0.611800000000    -0.39481    
O87      O      0.288900000000     0.067600000000     0.672030000000    -0.395191   
O88      O      0.288900000000     0.474400000000     0.676140000000    -0.395283   
O89      O      0.229820000000     0.194860000000     0.672060000000    -0.395309   
O90      O      0.229820000000     0.288070000000     0.676150000000    -0.395375   
O91      O      0.229840000000     0.243640000000     0.611830000000    -0.394848   
O92      O      0.229840000000     0.239310000000     0.736390000000    -0.394708   
O93      O      0.288880000000     0.273140000000     0.736380000000    -0.394618   
O94      O      0.288870000000     0.268850000000     0.611820000000    -0.394752   
O95      O      0.288900000000     0.317610000000     0.672080000000    -0.395344   
O96      O      0.288900000000     0.224400000000     0.676120000000    -0.395276   
O97      O      0.021960000000     0.989340000000     0.278460000000    -0.3923     
O98      O      0.026280000000     0.993640000000     0.403020000000    -0.392183   
O99      O      0.477530000000     0.944870000000     0.342770000000    -0.395282   
O100     O      0.070730000000     0.538080000000     0.338710000000    -0.394224   
O101     O      0.041190000000     0.567620000000     0.342790000000    -0.401719   
O102     O      0.447990000000     0.974410000000     0.338700000000    -0.395178   
O103     O      0.492460000000     0.518850000000     0.403040000000    -0.394888   
O104     O      0.496750000000     0.523160000000     0.278480000000    -0.394745   
O105     O      0.496780000000     0.773150000000     0.278440000000    -0.394731   
O106     O      0.492480000000     0.768860000000     0.403000000000    -0.394769   
O107     O      0.041220000000     0.817620000000     0.342740000000    -0.401682   
O108     O      0.448020000000     0.724410000000     0.338690000000    -0.39532    
O109     O      0.477560000000     0.694870000000     0.342770000000    -0.39533    
O110     O      0.070760000000     0.788080000000     0.338670000000    -0.394157   
O111     O      0.026310000000     0.743660000000     0.403000000000    -0.392698   
O112     O      0.021980000000     0.739320000000     0.278440000000    -0.392528   
O113     O      0.272000000000     0.989350000000     0.278460000000    -0.394463   
O114     O      0.276290000000     0.993630000000     0.403020000000    -0.394437   
O115     O      0.227550000000     0.944870000000     0.342760000000    -0.395472   
O116     O      0.320760000000     0.538080000000     0.338720000000    -0.39528    
O117     O      0.291220000000     0.567620000000     0.342800000000    -0.395265   
O118     O      0.198020000000     0.974410000000     0.338680000000    -0.395217   
O119     O      0.242470000000     0.518840000000     0.403030000000    -0.394737   
O120     O      0.246790000000     0.523170000000     0.278480000000    -0.394747   
O121     O      0.242440000000     0.768850000000     0.403000000000    -0.394707   
O122     O      0.246760000000     0.773160000000     0.278440000000    -0.394599   
O123     O      0.197990000000     0.724410000000     0.338680000000    -0.395342   
O124     O      0.291190000000     0.817620000000     0.342750000000    -0.395277   
O125     O      0.320740000000     0.788080000000     0.338690000000    -0.395182   
O126     O      0.227530000000     0.694870000000     0.342760000000    -0.395303   
O127     O      0.271970000000     0.739330000000     0.278450000000    -0.394723   
O128     O      0.276270000000     0.743650000000     0.403000000000    -0.394847   
O129     O      0.496770000000     0.976750000000     0.069680000000    -0.394119   
O130     O      0.492480000000     0.976760000000     0.945120000000    -0.392729   
O131     O      0.041220000000     0.976740000000     0.005380000000    -0.40177    
O132     O      0.448010000000     0.976740000000     0.009430000000    -0.395097   
O133     O      0.477540000000     0.535820000000     0.005380000000    -0.395488   
O134     O      0.070740000000     0.535820000000     0.009470000000    -0.394343   
O135     O      0.026300000000     0.535800000000     0.945150000000    -0.390874   
O136     O      0.021970000000     0.535790000000     0.069700000000    -0.392159   
O137     O      0.496780000000     0.726700000000     0.069660000000    -0.394364   
O138     O      0.492470000000     0.726710000000     0.945100000000    -0.392987   
O139     O      0.041220000000     0.726680000000     0.005350000000    -0.401928   
O140     O      0.448010000000     0.726680000000     0.009420000000    -0.395387   
O141     O      0.477550000000     0.785760000000     0.005350000000    -0.395418   
O142     O      0.070760000000     0.785760000000     0.009430000000    -0.394351   
O143     O      0.026300000000     0.785750000000     0.945110000000    -0.390806   
O144     O      0.021980000000     0.785740000000     0.069670000000    -0.392095   
O145     O      0.271980000000     0.535790000000     0.069700000000    -0.394449   
O146     O      0.276280000000     0.535790000000     0.945140000000    -0.393054   
O147     O      0.227540000000     0.535820000000     0.005400000000    -0.395459   
O148     O      0.320750000000     0.535820000000     0.009450000000    -0.395448   
O149     O      0.291220000000     0.976740000000     0.005360000000    -0.395366   
O150     O      0.198010000000     0.976740000000     0.009460000000    -0.395191   
O151     O      0.242460000000     0.976750000000     0.945130000000    -0.39273    
O152     O      0.246790000000     0.976760000000     0.069690000000    -0.39418    
O153     O      0.246780000000     0.726710000000     0.069670000000    -0.394421   
O154     O      0.242460000000     0.726700000000     0.945110000000    -0.393009   
O155     O      0.291210000000     0.726680000000     0.005360000000    -0.395549   
O156     O      0.198010000000     0.726680000000     0.009430000000    -0.395455   
O157     O      0.227550000000     0.785760000000     0.005350000000    -0.395429   
O158     O      0.320760000000     0.785760000000     0.009420000000    -0.395437   
O159     O      0.276300000000     0.785740000000     0.945110000000    -0.392962   
O160     O      0.271990000000     0.785750000000     0.069670000000    -0.394388   
O161     O      0.479860000000     0.944900000000     0.672040000000    -0.395314   
O162     O      0.479860000000     0.538110000000     0.676110000000    -0.395319   
O163     O      0.479870000000     0.993670000000     0.611800000000    -0.394423   
O164     O      0.479880000000     0.989360000000     0.736350000000    -0.394405   
O165     O      0.038920000000     0.523190000000     0.736370000000    -0.392243   
O166     O      0.038910000000     0.518870000000     0.611810000000    -0.392256   
O167     O      0.038940000000     0.567640000000     0.672040000000    -0.392939   
O168     O      0.038940000000     0.974440000000     0.676110000000    -0.39265    
O169     O      0.479860000000     0.694900000000     0.672010000000    -0.395274   
O170     O      0.479860000000     0.788100000000     0.676090000000    -0.395406   
O171     O      0.479880000000     0.743670000000     0.611770000000    -0.394717   
O172     O      0.479880000000     0.739350000000     0.736330000000    -0.394703   
O173     O      0.038920000000     0.773180000000     0.736330000000    -0.392227   
O174     O      0.038920000000     0.768880000000     0.611770000000    -0.392276   
O175     O      0.038940000000     0.817640000000     0.672030000000    -0.392965   
O176     O      0.038940000000     0.724440000000     0.676080000000    -0.392856   
O177     O      0.229810000000     0.944860000000     0.672050000000    -0.395324   
O178     O      0.229820000000     0.538070000000     0.676100000000    -0.395337   
O179     O      0.229840000000     0.993620000000     0.611800000000    -0.39455    
O180     O      0.229840000000     0.989330000000     0.736360000000    -0.394527   
O181     O      0.288870000000     0.523160000000     0.736370000000    -0.394732   
O182     O      0.288880000000     0.518830000000     0.611810000000    -0.394682   
O183     O      0.288900000000     0.567600000000     0.672040000000    -0.39531    
O184     O      0.288900000000     0.974400000000     0.676120000000    -0.39496    
O185     O      0.229820000000     0.694860000000     0.672010000000    -0.395315   
O186     O      0.229820000000     0.788060000000     0.676110000000    -0.395401   
O187     O      0.229840000000     0.743640000000     0.611780000000    -0.394833   
O188     O      0.229840000000     0.739310000000     0.736340000000    -0.394718   
O189     O      0.288880000000     0.773140000000     0.736330000000    -0.394696   
O190     O      0.288870000000     0.768840000000     0.611780000000    -0.394692   
O191     O      0.288900000000     0.817610000000     0.672030000000    -0.395323   
O192     O      0.288900000000     0.724400000000     0.676080000000    -0.395269   
O193     O      0.521960000000     0.489330000000     0.278470000000    -0.39462    
O194     O      0.526290000000     0.493650000000     0.403030000000    -0.39477    
O195     O      0.977530000000     0.444880000000     0.342790000000    -0.388153   
O196     O      0.570730000000     0.038080000000     0.338700000000    -0.395543   
O197     O      0.541190000000     0.067620000000     0.342780000000    -0.395287   
O198     O      0.947990000000     0.474410000000     0.338730000000    -0.395769   
O199     O      0.992450000000     0.018850000000     0.403020000000    -0.386633   
O200     O      0.996760000000     0.023170000000     0.278460000000    -0.384844   
O201     O      0.996780000000     0.273150000000     0.278490000000    -0.38485    
O202     O      0.992480000000     0.268860000000     0.403050000000    -0.386596   
O203     O      0.541220000000     0.317620000000     0.342790000000    -0.395258   
O204     O      0.948020000000     0.224410000000     0.338740000000    -0.395838   
O205     O      0.977560000000     0.194870000000     0.342820000000    -0.387985   
O206     O      0.570760000000     0.288080000000     0.338720000000    -0.395405   
O207     O      0.526310000000     0.243660000000     0.403050000000    -0.394787   
O208     O      0.521990000000     0.239320000000     0.278490000000    -0.394614   
O209     O      0.772000000000     0.489340000000     0.278470000000    -0.394521   
O210     O      0.776300000000     0.493630000000     0.403030000000    -0.394636   
O211     O      0.727550000000     0.444870000000     0.342780000000    -0.39546    
O212     O      0.820760000000     0.038080000000     0.338720000000    -0.395278   
O213     O      0.791220000000     0.067620000000     0.342790000000    -0.395197   
O214     O      0.698020000000     0.474410000000     0.338710000000    -0.395425   
O215     O      0.742460000000     0.018830000000     0.403020000000    -0.394778   
O216     O      0.746800000000     0.023180000000     0.278460000000    -0.394651   
O217     O      0.742440000000     0.268850000000     0.403040000000    -0.394645   
O218     O      0.746770000000     0.273160000000     0.278480000000    -0.394751   
O219     O      0.697990000000     0.224410000000     0.338720000000    -0.395426   
O220     O      0.791200000000     0.317620000000     0.342800000000    -0.395354   
O221     O      0.820730000000     0.288080000000     0.338740000000    -0.395316   
O222     O      0.727530000000     0.194870000000     0.342800000000    -0.39527    
O223     O      0.771970000000     0.239330000000     0.278490000000    -0.394702   
O224     O      0.776270000000     0.243640000000     0.403050000000    -0.394656   
O225     O      0.996760000000     0.476750000000     0.069700000000    -0.384579   
O226     O      0.992470000000     0.476760000000     0.945140000000    -0.384875   
O227     O      0.541200000000     0.476740000000     0.005390000000    -0.39551    
O228     O      0.948000000000     0.476740000000     0.009440000000    -0.395759   
O229     O      0.977550000000     0.035810000000     0.005360000000    -0.388219   
O230     O      0.570750000000     0.035810000000     0.009450000000    -0.395563   
O231     O      0.526310000000     0.035800000000     0.945130000000    -0.392878   
O232     O      0.521980000000     0.035790000000     0.069690000000    -0.39435    
O233     O      0.996780000000     0.226700000000     0.069720000000    -0.384595   
O234     O      0.992480000000     0.226710000000     0.945160000000    -0.384886   
O235     O      0.541220000000     0.226680000000     0.005400000000    -0.395443   
O236     O      0.948020000000     0.226680000000     0.009470000000    -0.395873   
O237     O      0.977560000000     0.285760000000     0.005400000000    -0.388232   
O238     O      0.570760000000     0.285760000000     0.009480000000    -0.395382   
O239     O      0.526310000000     0.285750000000     0.945160000000    -0.392979   
O240     O      0.521990000000     0.285740000000     0.069720000000    -0.394399   
O241     O      0.772000000000     0.035800000000     0.069680000000    -0.394138   
O242     O      0.776290000000     0.035790000000     0.945120000000    -0.39287    
O243     O      0.727550000000     0.035810000000     0.005380000000    -0.395526   
O244     O      0.820760000000     0.035810000000     0.009430000000    -0.395333   
O245     O      0.791200000000     0.476730000000     0.005370000000    -0.395482   
O246     O      0.698000000000     0.476730000000     0.009460000000    -0.395436   
O247     O      0.742450000000     0.476750000000     0.945140000000    -0.39293    
O248     O      0.746780000000     0.476760000000     0.069700000000    -0.394555   
O249     O      0.746780000000     0.226710000000     0.069720000000    -0.394386   
O250     O      0.742470000000     0.226700000000     0.945160000000    -0.39299    
O251     O      0.791220000000     0.226680000000     0.005400000000    -0.395379   
O252     O      0.698010000000     0.226680000000     0.009470000000    -0.39546    
O253     O      0.727560000000     0.285760000000     0.005400000000    -0.395564   
O254     O      0.820760000000     0.285760000000     0.009470000000    -0.395196   
O255     O      0.776300000000     0.285730000000     0.945150000000    -0.393061   
O256     O      0.771990000000     0.285750000000     0.069710000000    -0.394226   
O257     O      0.979860000000     0.444900000000     0.672060000000    -0.387026   
O258     O      0.979860000000     0.038100000000     0.676110000000    -0.387204   
O259     O      0.979880000000     0.493660000000     0.611810000000    -0.38642    
O260     O      0.979880000000     0.489360000000     0.736370000000    -0.386339   
O261     O      0.538920000000     0.023190000000     0.736350000000    -0.394592   
O262     O      0.538910000000     0.018870000000     0.611790000000    -0.394647   
O263     O      0.538940000000     0.067640000000     0.672030000000    -0.395341   
O264     O      0.538940000000     0.474440000000     0.676130000000    -0.39529    
O265     O      0.979860000000     0.194900000000     0.672060000000    -0.386956   
O266     O      0.979860000000     0.288100000000     0.676150000000    -0.387032   
O267     O      0.979890000000     0.243680000000     0.611830000000    -0.386513   
O268     O      0.979880000000     0.239350000000     0.736380000000    -0.386277   
O269     O      0.538920000000     0.273180000000     0.736380000000    -0.394601   
O270     O      0.538920000000     0.268880000000     0.611830000000    -0.394751   
O271     O      0.538940000000     0.317650000000     0.672080000000    -0.395383   
O272     O      0.538940000000     0.224440000000     0.676130000000    -0.395275   
O273     O      0.729820000000     0.444860000000     0.672070000000    -0.39525    
O274     O      0.729820000000     0.038060000000     0.676100000000    -0.395683   
O275     O      0.729840000000     0.493620000000     0.611800000000    -0.394728   
O276     O      0.729840000000     0.489330000000     0.736360000000    -0.394741   
O277     O      0.788870000000     0.023160000000     0.736350000000    -0.394608   
O278     O      0.788870000000     0.018830000000     0.611790000000    -0.394612   
O279     O      0.788890000000     0.067600000000     0.672030000000    -0.39537    
O280     O      0.788900000000     0.474400000000     0.676140000000    -0.395216   
O281     O      0.729820000000     0.194860000000     0.672050000000    -0.395294   
O282     O      0.729820000000     0.288060000000     0.676150000000    -0.395406   
O283     O      0.729840000000     0.243640000000     0.611820000000    -0.394846   
O284     O      0.729840000000     0.239310000000     0.736380000000    -0.394674   
O285     O      0.788880000000     0.273140000000     0.736380000000    -0.394544   
O286     O      0.788870000000     0.268840000000     0.611820000000    -0.394654   
O287     O      0.788900000000     0.317610000000     0.672080000000    -0.395287   
O288     O      0.788900000000     0.224400000000     0.676120000000    -0.395195   
O289     O      0.521960000000     0.989340000000     0.278460000000    -0.394578   
O290     O      0.526280000000     0.993640000000     0.403010000000    -0.394353   
O291     O      0.977530000000     0.944870000000     0.342770000000    -0.388007   
O292     O      0.570730000000     0.538080000000     0.338710000000    -0.395344   
O293     O      0.541190000000     0.567620000000     0.342790000000    -0.395331   
O294     O      0.947990000000     0.974410000000     0.338700000000    -0.395633   
O295     O      0.992460000000     0.518850000000     0.403040000000    -0.386717   
O296     O      0.996750000000     0.523160000000     0.278480000000    -0.384903   
O297     O      0.996780000000     0.773150000000     0.278440000000    -0.384886   
O298     O      0.992480000000     0.768860000000     0.403000000000    -0.386646   
O299     O      0.541220000000     0.817620000000     0.342740000000    -0.395302   
O300     O      0.948010000000     0.724410000000     0.338690000000    -0.395544   
O301     O      0.977560000000     0.694870000000     0.342770000000    -0.387983   
O302     O      0.570760000000     0.788080000000     0.338670000000    -0.395301   
O303     O      0.526310000000     0.743660000000     0.403000000000    -0.394856   
O304     O      0.521980000000     0.739320000000     0.278440000000    -0.394814   
O305     O      0.772000000000     0.989350000000     0.278460000000    -0.39427    
O306     O      0.776290000000     0.993630000000     0.403020000000    -0.394417   
O307     O      0.727550000000     0.944870000000     0.342750000000    -0.395487   
O308     O      0.820760000000     0.538080000000     0.338720000000    -0.395067   
O309     O      0.791220000000     0.567620000000     0.342800000000    -0.395233   
O310     O      0.698020000000     0.974410000000     0.338680000000    -0.395188   
O311     O      0.742470000000     0.518840000000     0.403030000000    -0.394706   
O312     O      0.746790000000     0.523170000000     0.278480000000    -0.394683   
O313     O      0.742440000000     0.768850000000     0.403000000000    -0.394734   
O314     O      0.746760000000     0.773160000000     0.278440000000    -0.394541   
O315     O      0.697990000000     0.724410000000     0.338680000000    -0.395307   
O316     O      0.791190000000     0.817620000000     0.342750000000    -0.395283   
O317     O      0.820730000000     0.788080000000     0.338690000000    -0.395147   
O318     O      0.727530000000     0.694870000000     0.342760000000    -0.395322   
O319     O      0.771970000000     0.739330000000     0.278450000000    -0.394581   
O320     O      0.776270000000     0.743650000000     0.403000000000    -0.394867   
O321     O      0.996770000000     0.976750000000     0.069680000000    -0.384325   
O322     O      0.992480000000     0.976760000000     0.945120000000    -0.384669   
O323     O      0.541220000000     0.976740000000     0.005380000000    -0.395355   
O324     O      0.948010000000     0.976740000000     0.009430000000    -0.395514   
O325     O      0.977540000000     0.535820000000     0.005380000000    -0.388167   
O326     O      0.570740000000     0.535820000000     0.009470000000    -0.395494   
O327     O      0.526300000000     0.535800000000     0.945140000000    -0.393      
O328     O      0.521970000000     0.535790000000     0.069700000000    -0.394432   
O329     O      0.996780000000     0.726700000000     0.069660000000    -0.384516   
O330     O      0.992470000000     0.726710000000     0.945100000000    -0.384875   
O331     O      0.541210000000     0.726680000000     0.005350000000    -0.395561   
O332     O      0.948010000000     0.726680000000     0.009420000000    -0.395739   
O333     O      0.977550000000     0.785760000000     0.005350000000    -0.388115   
O334     O      0.570760000000     0.785760000000     0.009430000000    -0.395461   
O335     O      0.526300000000     0.785750000000     0.945110000000    -0.392947   
O336     O      0.521980000000     0.785740000000     0.069670000000    -0.394381   
O337     O      0.771980000000     0.535790000000     0.069700000000    -0.394358   
O338     O      0.776280000000     0.535790000000     0.945140000000    -0.392893   
O339     O      0.727540000000     0.535810000000     0.005390000000    -0.395507   
O340     O      0.820740000000     0.535810000000     0.009440000000    -0.395246   
O341     O      0.791220000000     0.976740000000     0.005360000000    -0.395338   
O342     O      0.698010000000     0.976740000000     0.009450000000    -0.395169   
O343     O      0.742460000000     0.976750000000     0.945130000000    -0.392709   
O344     O      0.746790000000     0.976760000000     0.069680000000    -0.394151   
O345     O      0.746780000000     0.726710000000     0.069670000000    -0.394385   
O346     O      0.742460000000     0.726700000000     0.945110000000    -0.392911   
O347     O      0.791210000000     0.726680000000     0.005350000000    -0.395464   
O348     O      0.698010000000     0.726680000000     0.009420000000    -0.395422   
O349     O      0.727550000000     0.785760000000     0.005350000000    -0.39547    
O350     O      0.820750000000     0.785760000000     0.009420000000    -0.395265   
O351     O      0.776300000000     0.785740000000     0.945110000000    -0.392942   
O352     O      0.771990000000     0.785750000000     0.069660000000    -0.39424    
O353     O      0.979860000000     0.944900000000     0.672040000000    -0.387061   
O354     O      0.979860000000     0.538100000000     0.676110000000    -0.386947   
O355     O      0.979870000000     0.993670000000     0.611800000000    -0.386141   
O356     O      0.979880000000     0.989360000000     0.736350000000    -0.386121   
O357     O      0.538920000000     0.523190000000     0.736360000000    -0.394713   
O358     O      0.538910000000     0.518870000000     0.611800000000    -0.394707   
O359     O      0.538940000000     0.567640000000     0.672040000000    -0.395389   
O360     O      0.538940000000     0.974440000000     0.676110000000    -0.395054   
O361     O      0.979860000000     0.694900000000     0.672010000000    -0.386933   
O362     O      0.979860000000     0.788100000000     0.676090000000    -0.387056   
O363     O      0.979890000000     0.743670000000     0.611770000000    -0.386521   
O364     O      0.979880000000     0.739350000000     0.736330000000    -0.386271   
O365     O      0.538910000000     0.773180000000     0.736330000000    -0.394794   
O366     O      0.538920000000     0.768880000000     0.611770000000    -0.394709   
O367     O      0.538940000000     0.817650000000     0.672020000000    -0.395363   
O368     O      0.538940000000     0.724440000000     0.676080000000    -0.395277   
O369     O      0.729810000000     0.944860000000     0.672040000000    -0.395178   
O370     O      0.729820000000     0.538070000000     0.676100000000    -0.395397   
O371     O      0.729840000000     0.993620000000     0.611790000000    -0.394587   
O372     O      0.729840000000     0.989330000000     0.736350000000    -0.394494   
O373     O      0.788870000000     0.523160000000     0.736360000000    -0.394629   
O374     O      0.788880000000     0.518820000000     0.611810000000    -0.394586   
O375     O      0.788900000000     0.567600000000     0.672030000000    -0.395337   
O376     O      0.788900000000     0.974400000000     0.676120000000    -0.394949   
O377     O      0.729820000000     0.694860000000     0.672010000000    -0.395304   
O378     O      0.729820000000     0.788060000000     0.676100000000    -0.395415   
O379     O      0.729840000000     0.743640000000     0.611780000000    -0.394738   
O380     O      0.729840000000     0.739310000000     0.736330000000    -0.394687   
O381     O      0.788880000000     0.773140000000     0.736330000000    -0.394493   
O382     O      0.788870000000     0.768840000000     0.611770000000    -0.394736   
O383     O      0.788900000000     0.817610000000     0.672030000000    -0.395282   
O384     O      0.788900000000     0.724400000000     0.676080000000    -0.395197   


