data_structure

_audit_creation_method RASPA-1.0
_audit_creation_date 2023-6-5
_audit_author_name 'Poobodin Mano'

_cell_length_a    35.6977
_cell_length_b    35.6675
_cell_length_c    42.3831
_cell_angle_alpha 89.9815
_cell_angle_beta  90.0186
_cell_angle_gamma 119.981
_cell_volume      46743.3

_symmetry_cell_setting          triclinic
_symmetry_space_group_name_Hall 'P 1'
_symmetry_space_group_name_H-M  'P 1'
_symmetry_Int_Tables_number     1

_symmetry_equiv_pos_as_xyz 'x,y,z'

loop_
_atom_site_label
_atom_site_type_symbol
_atom_site_fract_x
_atom_site_fract_y
_atom_site_fract_z
_atom_site_charge
C1       C      0.738650000000     0.614960000000     0.282320000000     0.406165   
C2       C      0.902770000000     0.701390000000     0.321120000000     0.404772   
C3       C      0.844910000000     0.664910000000     0.241950000000     0.405558   
C4       C      0.796540000000     0.652460000000     0.362200000000     0.407167   
C5       C      0.235500000000     0.876090000000     0.406050000000     0.405291   
C6       C      0.070650000000     0.791090000000     0.368110000000     0.406303   
C7       C      0.128910000000     0.815240000000     0.447780000000     0.405797   
C8       C      0.175700000000     0.849870000000     0.327210000000     0.405724   
C9       C      0.404410000000     0.955870000000     0.451250000000     0.403989   
C10      C      0.569350000000     0.032960000000     0.988040000000     0.403068   
C11      C      0.507110000000     0.992410000000     0.408730000000     0.406564   
C12      C      0.465810000000     0.993790000000     0.029330000000     0.404991   
C13      C      0.236250000000     0.362830000000     0.153750000000     0.403858   
C14      C      0.070480000000     0.279580000000     0.118720000000     0.403839   
C15      C      0.131390000000     0.318640000000     0.196830000000     0.403887   
C16      C      0.175240000000     0.323790000000     0.075920000000     0.406647   
C17      C      0.737480000000     0.112690000000     0.034470000000     0.404568   
C18      C      0.902250000000     0.193310000000     0.072130000000     0.405616   
C19      C      0.842760000000     0.172770000000     0.992510000000     0.396271   
C20      C      0.796620000000     0.134090000000     0.113020000000     0.406838   
C21      C      0.405800000000     0.450210000000     0.197880000000     0.405275   
C22      C      0.570730000000     0.531900000000     0.235180000000     0.404656   
C23      C      0.511790000000     0.510860000000     0.156730000000     0.406161   
C24      C      0.466330000000     0.471420000000     0.277330000000     0.404126   
C25      C      0.105100000000     0.359370000000     0.404780000000     0.405388   
C26      C      0.191130000000     0.280820000000     0.366420000000     0.405759   
C27      C      0.169000000000     0.317920000000     0.446550000000     0.40403    
C28      C      0.128470000000     0.323210000000     0.326110000000     0.40642    
C29      C      0.356300000000     0.111770000000     0.285030000000     0.405202   
C30      C      0.277540000000     0.199020000000     0.319980000000     0.404243   
C31      C      0.313940000000     0.174610000000     0.242060000000     0.404945   
C32      C      0.319790000000     0.137090000000     0.363070000000     0.404537   
C33      C      0.955040000000     0.542080000000     0.987520000000     0.404001   
C34      C      0.026750000000     0.448410000000     0.452660000000     0.404076   
C35      C      0.987320000000     0.472560000000     0.030340000000     0.407055   
C36      C      0.994900000000     0.517830000000     0.409760000000     0.407355   
C37      C      0.692370000000     0.781870000000     0.115130000000     0.402782   
C38      C      0.613430000000     0.867290000000     0.154380000000     0.404432   
C39      C      0.649500000000     0.845160000000     0.074220000000     0.406866   
C40      C      0.657100000000     0.804910000000     0.194360000000     0.40641    
C41      C      0.777290000000     0.698250000000     0.068750000000     0.40441    
C42      C      0.872680000000     0.627450000000     0.034960000000     0.404688   
C43      C      0.846240000000     0.665230000000     0.112450000000     0.406978   
C44      C      0.803330000000     0.660630000000     0.991480000000     0.396624   
C45      C      0.531260000000     0.954000000000     0.200240000000     0.403067   
C46      C      0.443870000000     0.031520000000     0.237600000000     0.404031   
C47      C      0.468820000000     0.998180000000     0.158580000000     0.406888   
C48      C      0.506310000000     0.988980000000     0.279050000000     0.405008   
C49      C      0.357680000000     0.241550000000     0.033990000000     0.404389   
C50      C      0.272070000000     0.076530000000     0.071320000000     0.405671   
C51      C      0.313320000000     0.135540000000     0.992260000000     0.399108   
C52      C      0.315440000000     0.180050000000     0.112540000000     0.405916   
C53      C      0.447890000000     0.409350000000     0.986700000000     0.405359   
C54      C      0.535840000000     0.574150000000     0.448690000000     0.40525    
C55      C      0.511000000000     0.513810000000     0.027390000000     0.403875   
C56      C      0.470670000000     0.468490000000     0.406840000000     0.405969   
C57      C      0.189270000000     0.909510000000     0.120450000000     0.404334   
C58      C      0.102320000000     0.742920000000     0.153990000000     0.404562   
C59      C      0.124270000000     0.808190000000     0.077080000000     0.407412   
C60      C      0.168770000000     0.845590000000     0.197780000000     0.407303   
C61      C      0.026030000000     0.574870000000     0.200810000000     0.403107   
C62      C      0.956520000000     0.410620000000     0.239140000000     0.40443    
C63      C      0.985620000000     0.469590000000     0.159820000000     0.405995   
C64      C      0.997130000000     0.516530000000     0.280260000000     0.406064   
C65      C      0.775890000000     0.076210000000     0.320170000000     0.404907   
C66      C      0.870380000000     0.241780000000     0.285100000000     0.403477   
C67      C      0.843490000000     0.180160000000     0.363140000000     0.406614   
C68      C      0.803430000000     0.137630000000     0.242230000000     0.404345   
C69      C      0.616640000000     0.742400000000     0.402060000000     0.404139   
C70      C      0.691480000000     0.907790000000     0.366540000000     0.404449   
C71      C      0.655200000000     0.846140000000     0.444820000000     0.404135   
C72      C      0.652400000000     0.803970000000     0.323770000000     0.404093   
C73      C      0.755010000000     0.972270000000     0.351570000000     0.0307455  
C74      C      0.687630000000     0.968770000000     0.347320000000     0.0202026  
C75      C      0.775410000000     0.013880000000     0.339180000000     0.0286631  
C76      C      0.707940000000     0.011100000000     0.334920000000     0.0634633  
C77      C      0.872840000000     0.307160000000     0.270700000000     0.0308657  
C78      C      0.936110000000     0.302560000000     0.266610000000     0.0203386  
C79      C      0.894640000000     0.348890000000     0.258630000000     0.0290376  
C80      C      0.958810000000     0.345170000000     0.254570000000     0.063575   
C81      C      0.087320000000     0.640220000000     0.183820000000     0.030535   
C82      C      0.018570000000     0.634030000000     0.182250000000     0.0200024  
C83      C      0.105630000000     0.681770000000     0.171320000000     0.0289636  
C84      C      0.036710000000     0.676120000000     0.169680000000     0.063011   
C85      C      0.553760000000     0.677130000000     0.417110000000     0.0306995  
C86      C      0.621930000000     0.682360000000     0.421250000000     0.0202877  
C87      C      0.534260000000     0.635480000000     0.429550000000     0.0286265  
C88      C      0.602640000000     0.640210000000     0.433780000000     0.0632551  
C89      C      0.252120000000     0.971200000000     0.099980000000     0.0318549  
C90      C      0.187550000000     0.972980000000     0.106140000000     0.0195126  
C91      C      0.272160000000     0.013020000000     0.087470000000     0.0299407  
C92      C      0.207080000000     0.014800000000     0.093310000000     0.06418    
C93      C      0.359230000000     0.304640000000     0.013350000000     0.0289206  
C94      C      0.424320000000     0.304580000000     0.021880000000     0.0180882  
C95      C      0.382490000000     0.346810000000     0.001520000000     0.0379352  
C96      C      0.448100000000     0.346910000000     0.010190000000     0.0675721  
C97      C      0.616230000000     0.781080000000     0.274480000000     0.0306813  
C98      C      0.691700000000     0.810020000000     0.276890000000     0.0184888  
C99      C      0.617830000000     0.779920000000     0.241660000000     0.0305283  
C100     C      0.693930000000     0.811080000000     0.243770000000     0.0668756  
C101     C      0.690990000000     0.869000000000     0.994260000000     0.0253705  
C102     C      0.615520000000     0.839850000000     0.991530000000     0.0137752  
C103     C      0.689120000000     0.870200000000     0.027070000000     0.0356033  
C104     C      0.613010000000     0.838770000000     0.024630000000     0.0708369  
C105     C      0.756120000000     0.781740000000     0.099200000000     0.0306566  
C106     C      0.689090000000     0.717260000000     0.096180000000     0.0204412  
C107     C      0.776600000000     0.760490000000     0.086850000000     0.0290767  
C108     C      0.709430000000     0.695280000000     0.083820000000     0.0632834  
C109     C      0.594550000000     0.954630000000     0.180640000000     0.0311642  
C110     C      0.530230000000     0.888530000000     0.188470000000     0.0185634  
C111     C      0.614620000000     0.932140000000     0.169200000000     0.0297051  
C112     C      0.549970000000     0.865590000000     0.177440000000     0.064855   
C113     C      0.961070000000     0.512440000000     0.328240000000     0.0307584  
C114     C      0.036500000000     0.540880000000     0.328270000000     0.0196542  
C115     C      0.960950000000     0.512110000000     0.361070000000     0.0307723  
C116     C      0.037090000000     0.542600000000     0.361380000000     0.0645664  
C117     C      0.021800000000     0.475750000000     0.111510000000     0.0306081  
C118     C      0.946190000000     0.446030000000     0.111850000000     0.020045   
C119     C      0.021780000000     0.477430000000     0.078690000000     0.0306396  
C120     C      0.945490000000     0.445690000000     0.078730000000     0.064607   
C121     C      0.892100000000     0.544050000000     0.002500000000     0.038993   
C122     C      0.960030000000     0.607170000000     0.007440000000     0.0242771  
C123     C      0.872240000000     0.565510000000     0.015310000000     0.0267381  
C124     C      0.940180000000     0.629540000000     0.020090000000     0.0618679  
C125     C      0.355640000000     0.151990000000     0.412640000000     0.030729   
C126     C      0.280470000000     0.103850000000     0.409880000000     0.0191505  
C127     C      0.353610000000     0.149780000000     0.445490000000     0.0310549  
C128     C      0.277740000000     0.103370000000     0.442930000000     0.0667876  
C129     C      0.351040000000     0.205710000000     0.194140000000     0.0307439  
C130     C      0.275070000000     0.162800000000     0.194240000000     0.0202722  
C131     C      0.350920000000     0.205850000000     0.161230000000     0.0308782  
C132     C      0.274330000000     0.164890000000     0.161190000000     0.064272   
C133     C      0.441860000000     0.094440000000     0.253610000000     0.0307111  
C134     C      0.378930000000     0.026180000000     0.257360000000     0.0202091  
C135     C      0.419620000000     0.113780000000     0.266270000000     0.0287734  
C136     C      0.356110000000     0.045230000000     0.270250000000     0.0634869  
C137     C      0.089070000000     0.444700000000     0.438130000000     0.0308559  
C138     C      0.020190000000     0.383140000000     0.432160000000     0.0200786  
C139     C      0.107980000000     0.422260000000     0.425250000000     0.0292405  
C140     C      0.038890000000     0.359970000000     0.419240000000     0.0634196  
C141     C      0.278220000000     0.262150000000     0.339840000000     0.0311517  
C142     C      0.212080000000     0.198080000000     0.331260000000     0.0186493  
C143     C      0.255840000000     0.282140000000     0.351480000000     0.0298344  
C144     C      0.189250000000     0.217770000000     0.342510000000     0.065235   
C145     C      0.446000000000     0.486390000000     0.327080000000     0.0308886  
C146     C      0.472710000000     0.437980000000     0.324020000000     0.0188289  
C147     C      0.445840000000     0.483970000000     0.359910000000     0.0305101  
C148     C      0.475020000000     0.437280000000     0.357110000000     0.0664865  
C149     C      0.497170000000     0.536590000000     0.076530000000     0.031209   
C150     C      0.543360000000     0.507190000000     0.074560000000     0.0191364  
C151     C      0.499030000000     0.537080000000     0.109390000000     0.030932   
C152     C      0.543540000000     0.505370000000     0.107680000000     0.0669114  
C153     C      0.863570000000     0.157780000000     0.442920000000     0.0308277  
C154     C      0.840260000000     0.208920000000     0.446100000000     0.0189238  
C155     C      0.865270000000     0.161470000000     0.410130000000     0.0310674  
C156     C      0.839620000000     0.211090000000     0.413020000000     0.06713    
C157     C      0.815190000000     0.112560000000     0.193310000000     0.0307762  
C158     C      0.769170000000     0.142170000000     0.195390000000     0.0187627  
C159     C      0.811420000000     0.109970000000     0.160530000000     0.0307364  
C160     C      0.766990000000     0.141770000000     0.162300000000     0.0670321  
C161     C      0.108920000000     0.282110000000     0.246070000000     0.0306558  
C162     C      0.133620000000     0.356910000000     0.243430000000     0.0189212  
C163     C      0.106440000000     0.283520000000     0.278840000000     0.0307845  
C164     C      0.133510000000     0.359090000000     0.276530000000     0.0669991  
C165     C      0.155740000000     0.281960000000     0.996000000000     0.0256929  
C166     C      0.203480000000     0.357240000000     0.993130000000     0.0135405  
C167     C      0.159200000000     0.283820000000     0.028810000000     0.0359182  
C168     C      0.205200000000     0.359810000000     0.026220000000     0.0712159  
C169     C      0.007840000000     0.279690000000     0.099260000000     0.0312508  
C170     C      0.007030000000     0.213750000000     0.105470000000     0.0183071  
C171     C      0.965690000000     0.257430000000     0.087470000000     0.0300867  
C172     C      0.964650000000     0.190920000000     0.093720000000     0.0648596  
C173     C      0.299540000000     0.363120000000     0.172320000000     0.0315012  
C174     C      0.300030000000     0.428870000000     0.165980000000     0.0191014  
C175     C      0.342100000000     0.385680000000     0.183380000000     0.0296801  
C176     C      0.342810000000     0.451980000000     0.176920000000     0.0646053  
C177     C      0.536260000000     0.026450000000     0.327060000000     0.0309807  
C178     C      0.491590000000     0.950620000000     0.327370000000     0.0199866  
C179     C      0.534840000000     0.026920000000     0.359950000000     0.0309322  
C180     C      0.491750000000     0.950400000000     0.360470000000     0.0647619  
C181     C      0.441810000000     0.957990000000     0.078500000000     0.0312592  
C182     C      0.474130000000     0.033940000000     0.076220000000     0.0189863  
C183     C      0.441550000000     0.959600000000     0.111280000000     0.0307443  
C184     C      0.476020000000     0.036080000000     0.109350000000     0.066624   
C185     C      0.674240000000     0.050130000000     0.015200000000     0.0302897  
C186     C      0.674390000000     0.115730000000     0.021600000000     0.0195041  
C187     C      0.631940000000     0.030640000000     0.003600000000     0.0349418  
C188     C      0.631930000000     0.096590000000     0.010210000000     0.0650928  
C189     C      0.167870000000     0.878750000000     0.278840000000     0.0309205  
C190     C      0.197500000000     0.832710000000     0.279020000000     0.020015   
C191     C      0.164730000000     0.875920000000     0.246050000000     0.0313813  
C192     C      0.196600000000     0.831410000000     0.245920000000     0.0652529  
C193     C      0.130560000000     0.781200000000     0.995420000000     0.0254812  
C194     C      0.104500000000     0.830260000000     0.995770000000     0.0154054  
C195     C      0.130010000000     0.780420000000     0.028250000000     0.036513   
C196     C      0.101600000000     0.827930000000     0.028850000000     0.0689185  
C197     C      0.338540000000     0.892940000000     0.436860000000     0.0306964  
C198     C      0.344640000000     0.961490000000     0.432230000000     0.0202688  
C199     C      0.296600000000     0.873700000000     0.424900000000     0.0286998  
C200     C      0.302390000000     0.942560000000     0.420120000000     0.0631093  
C201     C      0.812820000000     0.694810000000     0.441800000000     0.031133   
C202     C      0.771120000000     0.618790000000     0.445320000000     0.0191391  
C203     C      0.809230000000     0.692150000000     0.409080000000     0.0307462  
C204     C      0.769390000000     0.615650000000     0.412230000000     0.0665109  
C205     C      0.841500000000     0.629690000000     0.193610000000     0.0309666  
C206     C      0.868960000000     0.705020000000     0.194360000000     0.0203373  
C207     C      0.840770000000     0.630170000000     0.160720000000     0.0311001  
C208     C      0.870550000000     0.706290000000     0.161270000000     0.0650911  
C209     C      0.633080000000     0.594870000000     0.254580000000     0.0317631  
C210     C      0.634030000000     0.529710000000     0.249270000000     0.0194697  
C211     C      0.675100000000     0.615000000000     0.266530000000     0.0297738  
C212     C      0.676310000000     0.549500000000     0.261270000000     0.0645306  
C213     C      0.966360000000     0.703000000000     0.340400000000     0.032121   
C214     C      0.964650000000     0.767810000000     0.335400000000     0.0192052  
C215     C      0.008410000000     0.726120000000     0.352300000000     0.0289961  
C216     C      0.006900000000     0.791500000000     0.347180000000     0.0641476  
C217     C      0.738650000000     0.614950000000     0.782320000000     0.406197   
C218     C      0.902770000000     0.701390000000     0.821130000000     0.40488    
C219     C      0.844910000000     0.664910000000     0.741950000000     0.405547   
C220     C      0.796540000000     0.652460000000     0.862200000000     0.407241   
C221     C      0.235500000000     0.876100000000     0.906050000000     0.405226   
C222     C      0.070650000000     0.791090000000     0.868110000000     0.406472   
C223     C      0.128910000000     0.815240000000     0.947780000000     0.405287   
C224     C      0.175700000000     0.849870000000     0.827210000000     0.405536   
C225     C      0.404410000000     0.955860000000     0.951250000000     0.403759   
C226     C      0.569350000000     0.032960000000     0.488040000000     0.40621    
C227     C      0.507110000000     0.992410000000     0.908730000000     0.406494   
C228     C      0.465810000000     0.993790000000     0.529330000000     0.405373   
C229     C      0.236240000000     0.362830000000     0.653750000000     0.403912   
C230     C      0.070480000000     0.279580000000     0.618720000000     0.403786   
C231     C      0.131390000000     0.318640000000     0.696830000000     0.403891   
C232     C      0.175240000000     0.323790000000     0.575920000000     0.406364   
C233     C      0.737480000000     0.112690000000     0.534470000000     0.404369   
C234     C      0.902250000000     0.193310000000     0.572130000000     0.405454   
C235     C      0.842760000000     0.172770000000     0.492510000000     0.404511   
C236     C      0.796620000000     0.134090000000     0.613020000000     0.406886   
C237     C      0.405800000000     0.450210000000     0.697880000000     0.405264   
C238     C      0.570730000000     0.531900000000     0.735180000000     0.404822   
C239     C      0.511790000000     0.510860000000     0.656720000000     0.406187   
C240     C      0.466330000000     0.471420000000     0.777330000000     0.404117   
C241     C      0.105100000000     0.359370000000     0.904780000000     0.405312   
C242     C      0.191130000000     0.280820000000     0.866420000000     0.405707   
C243     C      0.169000000000     0.317920000000     0.946550000000     0.403685   
C244     C      0.128470000000     0.323210000000     0.826110000000     0.406446   
C245     C      0.356300000000     0.111770000000     0.785030000000     0.405206   
C246     C      0.277540000000     0.199020000000     0.819980000000     0.404216   
C247     C      0.313940000000     0.174610000000     0.742060000000     0.404867   
C248     C      0.319790000000     0.137090000000     0.863070000000     0.404496   
C249     C      0.955040000000     0.542090000000     0.487520000000     0.404177   
C250     C      0.026750000000     0.448410000000     0.952660000000     0.403656   
C251     C      0.987320000000     0.472550000000     0.530340000000     0.407409   
C252     C      0.994910000000     0.517830000000     0.909760000000     0.407254   
C253     C      0.692360000000     0.781870000000     0.615130000000     0.402815   
C254     C      0.613430000000     0.867290000000     0.654380000000     0.404272   
C255     C      0.649500000000     0.845160000000     0.574220000000     0.4064     
C256     C      0.657100000000     0.804910000000     0.694360000000     0.406403   
C257     C      0.777280000000     0.698250000000     0.568760000000     0.404219   
C258     C      0.872680000000     0.627450000000     0.534960000000     0.404669   
C259     C      0.846240000000     0.665230000000     0.612450000000     0.406691   
C260     C      0.803330000000     0.660630000000     0.491480000000     0.405133   
C261     C      0.531260000000     0.954000000000     0.700240000000     0.402979   
C262     C      0.443870000000     0.031520000000     0.737600000000     0.404036   
C263     C      0.468820000000     0.998180000000     0.658580000000     0.406999   
C264     C      0.506310000000     0.988980000000     0.779050000000     0.4049     
C265     C      0.357680000000     0.241550000000     0.533980000000     0.404197   
C266     C      0.272070000000     0.076530000000     0.571320000000     0.405488   
C267     C      0.313320000000     0.135540000000     0.492260000000     0.407272   
C268     C      0.315440000000     0.180050000000     0.612540000000     0.405964   
C269     C      0.447890000000     0.409350000000     0.486700000000     0.405623   
C270     C      0.535840000000     0.574150000000     0.948690000000     0.404852   
C271     C      0.511000000000     0.513810000000     0.527390000000     0.404194   
C272     C      0.470670000000     0.468480000000     0.906840000000     0.405853   
C273     C      0.189270000000     0.909510000000     0.620460000000     0.404276   
C274     C      0.102320000000     0.742910000000     0.653990000000     0.404646   
C275     C      0.124270000000     0.808190000000     0.577080000000     0.407088   
C276     C      0.168770000000     0.845590000000     0.697780000000     0.407413   
C277     C      0.026030000000     0.574870000000     0.700810000000     0.403371   
C278     C      0.956530000000     0.410620000000     0.739140000000     0.404402   
C279     C      0.985620000000     0.469590000000     0.659820000000     0.406166   
C280     C      0.997130000000     0.516520000000     0.780260000000     0.406098   
C281     C      0.775890000000     0.076210000000     0.820170000000     0.404836   
C282     C      0.870380000000     0.241780000000     0.785100000000     0.403535   
C283     C      0.843490000000     0.180160000000     0.863140000000     0.406601   
C284     C      0.803420000000     0.137630000000     0.742230000000     0.404351   
C285     C      0.616640000000     0.742400000000     0.902060000000     0.404282   
C286     C      0.691480000000     0.907790000000     0.866540000000     0.40438    
C287     C      0.655200000000     0.846140000000     0.944820000000     0.403682   
C288     C      0.652390000000     0.803970000000     0.823770000000     0.404135   
C289     C      0.755010000000     0.972270000000     0.851570000000     0.0306467  
C290     C      0.687630000000     0.968770000000     0.847320000000     0.0201086  
C291     C      0.775410000000     0.013880000000     0.839170000000     0.0286138  
C292     C      0.707940000000     0.011100000000     0.834920000000     0.0634323  
C293     C      0.872840000000     0.307160000000     0.770710000000     0.0308664  
C294     C      0.936110000000     0.302560000000     0.766610000000     0.0203524  
C295     C      0.894640000000     0.348890000000     0.758630000000     0.0290434  
C296     C      0.958810000000     0.345170000000     0.754570000000     0.0635727  
C297     C      0.087320000000     0.640220000000     0.683820000000     0.0305281  
C298     C      0.018570000000     0.634030000000     0.682250000000     0.0199548  
C299     C      0.105630000000     0.681770000000     0.671320000000     0.0289058  
C300     C      0.036710000000     0.676120000000     0.669680000000     0.0630284  
C301     C      0.553760000000     0.677120000000     0.917110000000     0.0305427  
C302     C      0.621930000000     0.682350000000     0.921250000000     0.0199929  
C303     C      0.534260000000     0.635480000000     0.929550000000     0.0284143  
C304     C      0.602640000000     0.640210000000     0.933780000000     0.0633109  
C305     C      0.252120000000     0.971200000000     0.599980000000     0.0317156  
C306     C      0.187550000000     0.972980000000     0.606140000000     0.0193472  
C307     C      0.272160000000     0.013020000000     0.587470000000     0.0297282  
C308     C      0.207080000000     0.014800000000     0.593310000000     0.0641438  
C309     C      0.359230000000     0.304640000000     0.513350000000     0.031273   
C310     C      0.424320000000     0.304580000000     0.521880000000     0.0188062  
C311     C      0.382490000000     0.346810000000     0.501520000000     0.0298091  
C312     C      0.448100000000     0.346900000000     0.510190000000     0.0646224  
C313     C      0.616230000000     0.781070000000     0.774480000000     0.0306859  
C314     C      0.691700000000     0.810020000000     0.776890000000     0.0184861  
C315     C      0.617830000000     0.779920000000     0.741660000000     0.030542   
C316     C      0.693920000000     0.811070000000     0.743770000000     0.0669289  
C317     C      0.691000000000     0.869000000000     0.494260000000     0.0305686  
C318     C      0.615520000000     0.839850000000     0.491520000000     0.018661   
C319     C      0.689120000000     0.870200000000     0.527070000000     0.0305227  
C320     C      0.613010000000     0.838770000000     0.524630000000     0.0666536  
C321     C      0.756120000000     0.781750000000     0.599200000000     0.030497   
C322     C      0.689090000000     0.717260000000     0.596180000000     0.0201868  
C323     C      0.776600000000     0.760490000000     0.586850000000     0.0288752  
C324     C      0.709430000000     0.695280000000     0.583820000000     0.0633462  
C325     C      0.594550000000     0.954630000000     0.680640000000     0.0311755  
C326     C      0.530230000000     0.888530000000     0.688470000000     0.0184738  
C327     C      0.614620000000     0.932140000000     0.669200000000     0.0296529  
C328     C      0.549970000000     0.865600000000     0.677440000000     0.0648653  
C329     C      0.961070000000     0.512440000000     0.828240000000     0.0307277  
C330     C      0.036500000000     0.540880000000     0.828270000000     0.0196091  
C331     C      0.960950000000     0.512110000000     0.861070000000     0.0307527  
C332     C      0.037090000000     0.542600000000     0.861390000000     0.0646524  
C333     C      0.021800000000     0.475750000000     0.611510000000     0.030495   
C334     C      0.946190000000     0.446030000000     0.611850000000     0.0199071  
C335     C      0.021780000000     0.477430000000     0.578690000000     0.0304894  
C336     C      0.945490000000     0.445690000000     0.578730000000     0.0647539  
C337     C      0.892100000000     0.544050000000     0.502500000000     0.0307297  
C338     C      0.960030000000     0.607170000000     0.507440000000     0.0204834  
C339     C      0.872240000000     0.565510000000     0.515310000000     0.029262   
C340     C      0.940180000000     0.629530000000     0.520090000000     0.0628739  
C341     C      0.355640000000     0.151990000000     0.912640000000     0.0306931  
C342     C      0.280470000000     0.103850000000     0.909880000000     0.0190435  
C343     C      0.353610000000     0.149780000000     0.945490000000     0.0303129  
C344     C      0.277740000000     0.103370000000     0.942930000000     0.066543   
C345     C      0.351040000000     0.205710000000     0.694140000000     0.0307376  
C346     C      0.275070000000     0.162800000000     0.694240000000     0.0202682  
C347     C      0.350920000000     0.205850000000     0.661230000000     0.0308843  
C348     C      0.274330000000     0.164890000000     0.661190000000     0.0643152  
C349     C      0.441860000000     0.094440000000     0.753610000000     0.0307083  
C350     C      0.378930000000     0.026180000000     0.757360000000     0.0202073  
C351     C      0.419620000000     0.113780000000     0.766280000000     0.0287774  
C352     C      0.356110000000     0.045230000000     0.770250000000     0.0634921  
C353     C      0.089080000000     0.444710000000     0.938130000000     0.0304916  
C354     C      0.020190000000     0.383140000000     0.932160000000     0.0197998  
C355     C      0.107980000000     0.422260000000     0.925240000000     0.0291509  
C356     C      0.038890000000     0.359970000000     0.919240000000     0.0633554  
C357     C      0.278220000000     0.262150000000     0.839840000000     0.0310822  
C358     C      0.212080000000     0.198080000000     0.831260000000     0.0185753  
C359     C      0.255840000000     0.282140000000     0.851480000000     0.0297562  
C360     C      0.189250000000     0.217770000000     0.842510000000     0.0652181  
C361     C      0.445990000000     0.486390000000     0.827080000000     0.0306928  
C362     C      0.472710000000     0.437980000000     0.824020000000     0.0188499  
C363     C      0.445840000000     0.483960000000     0.859910000000     0.0306614  
C364     C      0.475020000000     0.437280000000     0.857120000000     0.0665998  
C365     C      0.497170000000     0.536600000000     0.576530000000     0.0309668  
C366     C      0.543360000000     0.507190000000     0.574560000000     0.0189605  
C367     C      0.499030000000     0.537080000000     0.609390000000     0.0308795  
C368     C      0.543540000000     0.505370000000     0.607680000000     0.0669145  
C369     C      0.863570000000     0.157780000000     0.942920000000     0.0300326  
C370     C      0.840260000000     0.208930000000     0.946090000000     0.0179921  
C371     C      0.865270000000     0.161470000000     0.910130000000     0.0311001  
C372     C      0.839620000000     0.211090000000     0.913020000000     0.0673089  
C373     C      0.815190000000     0.112560000000     0.693310000000     0.0307947  
C374     C      0.769170000000     0.142170000000     0.695390000000     0.0187511  
C375     C      0.811420000000     0.109970000000     0.660530000000     0.0307378  
C376     C      0.766990000000     0.141770000000     0.662300000000     0.067068   
C377     C      0.108920000000     0.282110000000     0.746070000000     0.0306705  
C378     C      0.133620000000     0.356910000000     0.743430000000     0.0189351  
C379     C      0.106440000000     0.283520000000     0.778840000000     0.0307858  
C380     C      0.133510000000     0.359090000000     0.776530000000     0.0670012  
C381     C      0.155740000000     0.281960000000     0.496000000000     0.0309369  
C382     C      0.203480000000     0.357240000000     0.493130000000     0.0183738  
C383     C      0.159200000000     0.283820000000     0.528810000000     0.0308271  
C384     C      0.205200000000     0.359810000000     0.526220000000     0.0670502  
C385     C      0.007840000000     0.279690000000     0.599260000000     0.0310858  
C386     C      0.007030000000     0.213750000000     0.605470000000     0.0181312  
C387     C      0.965690000000     0.257430000000     0.587470000000     0.0298948  
C388     C      0.964650000000     0.190920000000     0.593720000000     0.0648214  
C389     C      0.299540000000     0.363120000000     0.672320000000     0.0314705  
C390     C      0.300030000000     0.428870000000     0.665980000000     0.019055   
C391     C      0.342100000000     0.385680000000     0.683380000000     0.0296571  
C392     C      0.342810000000     0.451990000000     0.676920000000     0.0645769  
C393     C      0.536250000000     0.026450000000     0.827060000000     0.0309691  
C394     C      0.491590000000     0.950620000000     0.827370000000     0.0199736  
C395     C      0.534840000000     0.026920000000     0.859950000000     0.0308853  
C396     C      0.491750000000     0.950400000000     0.860470000000     0.0648127  
C397     C      0.441810000000     0.957990000000     0.578500000000     0.031099   
C398     C      0.474130000000     0.033940000000     0.576220000000     0.0188271  
C399     C      0.441550000000     0.959600000000     0.611280000000     0.0306385  
C400     C      0.476020000000     0.036080000000     0.609350000000     0.0666121  
C401     C      0.674240000000     0.050130000000     0.515200000000     0.031471   
C402     C      0.674390000000     0.115730000000     0.521600000000     0.0192278  
C403     C      0.631940000000     0.030640000000     0.503600000000     0.0300379  
C404     C      0.631930000000     0.096590000000     0.510210000000     0.0649549  
C405     C      0.167870000000     0.878750000000     0.778840000000     0.030955   
C406     C      0.197500000000     0.832710000000     0.779020000000     0.0200439  
C407     C      0.164730000000     0.875920000000     0.746060000000     0.0313619  
C408     C      0.196610000000     0.831410000000     0.745920000000     0.0652385  
C409     C      0.130560000000     0.781200000000     0.495420000000     0.0308102  
C410     C      0.104510000000     0.830260000000     0.495770000000     0.0204257  
C411     C      0.130010000000     0.780420000000     0.528250000000     0.0313356  
C412     C      0.101600000000     0.827930000000     0.528850000000     0.0647639  
C413     C      0.338540000000     0.892940000000     0.936860000000     0.0304319  
C414     C      0.344640000000     0.961490000000     0.932230000000     0.0200258  
C415     C      0.296600000000     0.873700000000     0.924900000000     0.0285371  
C416     C      0.302390000000     0.942560000000     0.920120000000     0.0630165  
C417     C      0.812820000000     0.694810000000     0.941800000000     0.0303428  
C418     C      0.771130000000     0.618790000000     0.945320000000     0.018346   
C419     C      0.809230000000     0.692150000000     0.909080000000     0.0307777  
C420     C      0.769390000000     0.615650000000     0.912230000000     0.0666348  
C421     C      0.841500000000     0.629680000000     0.693610000000     0.0309557  
C422     C      0.868960000000     0.705010000000     0.694360000000     0.0203548  
C423     C      0.840770000000     0.630170000000     0.660720000000     0.0311099  
C424     C      0.870550000000     0.706290000000     0.661280000000     0.0650779  
C425     C      0.633080000000     0.594870000000     0.754580000000     0.0318027  
C426     C      0.634030000000     0.529710000000     0.749280000000     0.019499   
C427     C      0.675100000000     0.615000000000     0.766530000000     0.0297792  
C428     C      0.676310000000     0.549500000000     0.761270000000     0.0645269  
C429     C      0.966360000000     0.703000000000     0.840400000000     0.0320468  
C430     C      0.964650000000     0.767810000000     0.835400000000     0.0191302  
C431     C      0.008410000000     0.726120000000     0.852300000000     0.028912   
C432     C      0.006900000000     0.791500000000     0.847180000000     0.0641306  
Cu1      Cu     0.820700000000     0.692800000000     0.299700000000     0.856558   
Cu2      Cu     0.820630000000     0.623880000000     0.304420000000     0.848435   
Cu3      Cu     0.150980000000     0.866480000000     0.389440000000     0.858378   
Cu4      Cu     0.154630000000     0.799490000000     0.385750000000     0.84685    
Cu5      Cu     0.490370000000     0.029590000000     0.965310000000     0.852745   
Cu6      Cu     0.483710000000     0.958000000000     0.972900000000     0.844899   
Cu7      Cu     0.154600000000     0.356180000000     0.133230000000     0.851539   
Cu8      Cu     0.151970000000     0.286130000000     0.139480000000     0.848291   
Cu9      Cu     0.819090000000     0.187210000000     0.055770000000     0.855071   
Cu10     Cu     0.820900000000     0.119390000000     0.049870000000     0.847603   
Cu11     Cu     0.486940000000     0.524510000000     0.219960000000     0.851634   
Cu12     Cu     0.489570000000     0.457150000000     0.213800000000     0.848864   
Cu13     Cu     0.115800000000     0.284840000000     0.389310000000     0.85668    
Cu14     Cu     0.181690000000     0.355920000000     0.383260000000     0.844759   
Cu15     Cu     0.281670000000     0.122680000000     0.299790000000     0.862365   
Cu16     Cu     0.352730000000     0.188900000000     0.305180000000     0.838745   
Cu17     Cu     0.954730000000     0.463900000000     0.965720000000     0.854252   
Cu18     Cu     0.027350000000     0.526820000000     0.974460000000     0.844618   
Cu19     Cu     0.617800000000     0.791870000000     0.131510000000     0.857014   
Cu20     Cu     0.688670000000     0.858200000000     0.137100000000     0.842621   
Cu21     Cu     0.793590000000     0.626390000000     0.055710000000     0.850607   
Cu22     Cu     0.856420000000     0.699230000000     0.048080000000     0.851715   
Cu23     Cu     0.454850000000     0.957630000000     0.221030000000     0.862784   
Cu24     Cu     0.521010000000     0.028980000000     0.216390000000     0.838514   
Cu25     Cu     0.349610000000     0.159800000000     0.056050000000     0.849016   
Cu26     Cu     0.280320000000     0.158020000000     0.048310000000     0.855028   
Cu27     Cu     0.523860000000     0.488380000000     0.964130000000     0.854084   
Cu28     Cu     0.458510000000     0.494520000000     0.969970000000     0.840883   
Cu29     Cu     0.178680000000     0.823530000000     0.132890000000     0.850776   
Cu30     Cu     0.113640000000     0.829390000000     0.142090000000     0.854748   
Cu31     Cu     0.027810000000     0.497160000000     0.221550000000     0.847121   
Cu32     Cu     0.955000000000     0.488680000000     0.218590000000     0.854654   
Cu33     Cu     0.855310000000     0.154530000000     0.299800000000     0.846061   
Cu34     Cu     0.791570000000     0.163570000000     0.305550000000     0.853918   
Cu35     Cu     0.689920000000     0.828680000000     0.387280000000     0.851649   
Cu36     Cu     0.617850000000     0.821490000000     0.381320000000     0.847838   
Cu37     Cu     0.820700000000     0.692790000000     0.799700000000     0.856519   
Cu38     Cu     0.820630000000     0.623890000000     0.804420000000     0.848265   
Cu39     Cu     0.150980000000     0.866480000000     0.889440000000     0.858054   
Cu40     Cu     0.154630000000     0.799500000000     0.885750000000     0.846558   
Cu41     Cu     0.490370000000     0.029590000000     0.465320000000     0.855863   
Cu42     Cu     0.483700000000     0.958000000000     0.472900000000     0.848128   
Cu43     Cu     0.154600000000     0.356190000000     0.633230000000     0.851344   
Cu44     Cu     0.151970000000     0.286130000000     0.639470000000     0.848299   
Cu45     Cu     0.819090000000     0.187210000000     0.555770000000     0.855151   
Cu46     Cu     0.820900000000     0.119390000000     0.549870000000     0.847473   
Cu47     Cu     0.486940000000     0.524510000000     0.719960000000     0.851552   
Cu48     Cu     0.489570000000     0.457150000000     0.713800000000     0.848896   
Cu49     Cu     0.115800000000     0.284840000000     0.889310000000     0.856392   
Cu50     Cu     0.181690000000     0.355920000000     0.883260000000     0.84457    
Cu51     Cu     0.281670000000     0.122680000000     0.799790000000     0.862323   
Cu52     Cu     0.352730000000     0.188900000000     0.805180000000     0.838736   
Cu53     Cu     0.954730000000     0.463900000000     0.465720000000     0.857142   
Cu54     Cu     0.027350000000     0.526820000000     0.474460000000     0.847855   
Cu55     Cu     0.617800000000     0.791870000000     0.631500000000     0.856858   
Cu56     Cu     0.688670000000     0.858200000000     0.637100000000     0.842423   
Cu57     Cu     0.793590000000     0.626390000000     0.555710000000     0.850705   
Cu58     Cu     0.856420000000     0.699230000000     0.548080000000     0.8517     
Cu59     Cu     0.454850000000     0.957630000000     0.721030000000     0.862755   
Cu60     Cu     0.521010000000     0.028980000000     0.716390000000     0.838519   
Cu61     Cu     0.349610000000     0.159800000000     0.556050000000     0.849106   
Cu62     Cu     0.280320000000     0.158020000000     0.548310000000     0.854848   
Cu63     Cu     0.523860000000     0.488370000000     0.464130000000     0.856944   
Cu64     Cu     0.458510000000     0.494520000000     0.469970000000     0.843871   
Cu65     Cu     0.178680000000     0.823530000000     0.632890000000     0.850451   
Cu66     Cu     0.113640000000     0.829380000000     0.642090000000     0.854646   
Cu67     Cu     0.027810000000     0.497160000000     0.721550000000     0.847087   
Cu68     Cu     0.955000000000     0.488680000000     0.718590000000     0.854678   
Cu69     Cu     0.855310000000     0.154530000000     0.799800000000     0.846078   
Cu70     Cu     0.791570000000     0.163570000000     0.805550000000     0.85381    
Cu71     Cu     0.689930000000     0.828680000000     0.887280000000     0.851291   
Cu72     Cu     0.617850000000     0.821480000000     0.881320000000     0.847858   
H1       H      0.810310000000     0.029840000000     0.336950000000     0.0391904  
H2       H      0.775190000000     0.958550000000     0.357630000000     0.0386667  
H3       H      0.652670000000     0.951180000000     0.349970000000     0.0455363  
H4       H      0.875970000000     0.365180000000     0.256440000000     0.0399031  
H5       H      0.838980000000     0.293900000000     0.276620000000     0.039314   
H6       H      0.953040000000     0.284520000000     0.269350000000     0.0457176  
H7       H      0.140400000000     0.698890000000     0.167970000000     0.0398456  
H8       H      0.108740000000     0.627620000000     0.188850000000     0.0387487  
H9       H      0.983820000000     0.615410000000     0.185960000000     0.04544    
H10      H      0.499340000000     0.618700000000     0.431860000000     0.0391453  
H11      H      0.533010000000     0.690190000000     0.411050000000     0.0385008  
H12      H      0.656880000000     0.700600000000     0.418550000000     0.0455212  
H13      H      0.305710000000     0.026950000000     0.080410000000     0.0418845  
H14      H      0.271070000000     0.955220000000     0.102020000000     0.0407702  
H15      H      0.153920000000     0.957920000000     0.113500000000     0.0448669  
H16      H      0.364030000000     0.361660000000     0.993590000000     0.0365811  
H17      H      0.324270000000     0.289280000000     0.014160000000     0.0424446  
H18      H      0.441840000000     0.288820000000     0.030200000000     0.0449268  
H19      H      0.587630000000     0.768170000000     0.228910000000     0.0379287  
H20      H      0.584950000000     0.769390000000     0.285570000000     0.0380635  
H21      H      0.721360000000     0.821530000000     0.290360000000     0.0435388  
H22      H      0.719230000000     0.882080000000     0.039960000000     0.0369217  
H23      H      0.722360000000     0.880770000000     0.983300000000     0.0382305  
H24      H      0.585940000000     0.828240000000     0.977930000000     0.0442015  
H25      H      0.811420000000     0.779640000000     0.084140000000     0.0401971  
H26      H      0.776060000000     0.815840000000     0.104760000000     0.0388187  
H27      H      0.654200000000     0.699550000000     0.099290000000     0.0461523  
H28      H      0.648000000000     0.951240000000     0.161620000000     0.0414043  
H29      H      0.613310000000     0.989670000000     0.181540000000     0.0404199  
H30      H      0.496870000000     0.870170000000     0.196460000000     0.0447019  
H31      H      0.930060000000     0.500040000000     0.372890000000     0.0373891  
H32      H      0.930270000000     0.500010000000     0.316250000000     0.0382491  
H33      H      0.066750000000     0.552010000000     0.315630000000     0.0435039  
H34      H      0.052690000000     0.490450000000     0.066730000000     0.0377698  
H35      H      0.052690000000     0.488260000000     0.123380000000     0.0383674  
H36      H      0.915920000000     0.433890000000     0.124650000000     0.0434341  
H37      H      0.837290000000     0.546990000000     0.017390000000     0.0410227  
H38      H      0.871520000000     0.510340000000     0.996090000000     0.0348319  
H39      H      0.995000000000     0.624100000000     0.004960000000     0.0450742  
H40      H      0.383460000000     0.169010000000     0.458470000000     0.0374828  
H41      H      0.386920000000     0.172020000000     0.401670000000     0.0382989  
H42      H      0.251080000000     0.084810000000     0.396290000000     0.0441978  
H43      H      0.381890000000     0.222840000000     0.149250000000     0.037064   
H44      H      0.382000000000     0.221960000000     0.206150000000     0.0375963  
H45      H      0.244670000000     0.145150000000     0.206980000000     0.0427224  
H46      H      0.437680000000     0.148690000000     0.268830000000     0.0394647  
H47      H      0.475650000000     0.115230000000     0.247600000000     0.0385968  
H48      H      0.362190000000     0.991230000000     0.254480000000     0.0461428  
H49      H      0.142980000000     0.439680000000     0.423530000000     0.039613   
H50      H      0.110320000000     0.478090000000     0.445040000000     0.0388171  
H51      H      0.985190000000     0.367140000000     0.434250000000     0.0458436  
H52      H      0.274940000000     0.315370000000     0.359450000000     0.0407826  
H53      H      0.313250000000     0.280820000000     0.339190000000     0.0401489  
H54      H      0.193730000000     0.164890000000     0.322850000000     0.0447814  
H55      H      0.435270000000     0.503210000000     0.372930000000     0.0372477  
H56      H      0.434860000000     0.506630000000     0.316240000000     0.0381296  
H57      H      0.483020000000     0.419010000000     0.310290000000     0.0437707  
H58      H      0.480440000000     0.548800000000     0.121990000000     0.0380253  
H59      H      0.478020000000     0.548680000000     0.065230000000     0.0387648  
H60      H      0.561670000000     0.495690000000     0.061260000000     0.0445741  
H61      H      0.874930000000     0.141540000000     0.397030000000     0.0372035  
H62      H      0.872780000000     0.135980000000     0.453700000000     0.0383019  
H63      H      0.830840000000     0.228600000000     0.459840000000     0.044366   
H64      H      0.829340000000     0.097530000000     0.147870000000     0.0377034  
H65      H      0.834920000000     0.101110000000     0.204530000000     0.0384404  
H66      H      0.751530000000     0.154420000000     0.208710000000     0.0439916  
H67      H      0.096010000000     0.253600000000     0.291730000000     0.03756    
H68      H      0.099390000000     0.251160000000     0.235080000000     0.0381045  
H69      H      0.143850000000     0.386330000000     0.229880000000     0.044177   
H70      H      0.140570000000     0.253850000000     0.041810000000     0.0371995  
H71      H      0.135420000000     0.250670000000     0.985080000000     0.0390206  
H72      H      0.221840000000     0.386740000000     0.979500000000     0.043794   
H73      H      0.951310000000     0.276730000000     0.080570000000     0.0419502  
H74      H      0.023550000000     0.314650000000     0.100960000000     0.0407524  
H75      H      0.022550000000     0.195560000000     0.112730000000     0.0443954  
H76      H      0.356780000000     0.366590000000     0.190110000000     0.041309   
H77      H      0.283820000000     0.328130000000     0.170920000000     0.040897   
H78      H      0.284280000000     0.446920000000     0.158880000000     0.0448033  
H79      H      0.552170000000     0.058050000000     0.371720000000     0.03776    
H80      H      0.553840000000     0.057220000000     0.314880000000     0.0383307  
H81      H      0.473730000000     0.920070000000     0.314810000000     0.0429413  
H82      H      0.428590000000     0.929130000000     0.123870000000     0.0385882  
H83      H      0.428390000000     0.926510000000     0.067340000000     0.0386805  
H84      H      0.486780000000     0.063770000000     0.062750000000     0.0439387  
H85      H      0.616980000000     0.996940000000     0.996600000000     0.0374677  
H86      H      0.689620000000     0.030570000000     0.016790000000     0.0417879  
H87      H      0.690200000000     0.149400000000     0.029030000000     0.0453093  
H88      H      0.151150000000     0.893350000000     0.234120000000     0.0373352  
H89      H      0.155740000000     0.897400000000     0.290810000000     0.0385609  
H90      H      0.209990000000     0.814800000000     0.291760000000     0.0431756  
H91      H      0.140970000000     0.760590000000     0.040020000000     0.0361339  
H92      H      0.142450000000     0.762430000000     0.983310000000     0.0388191  
H93      H      0.094750000000     0.850620000000     0.983260000000     0.0440379  
H94      H      0.279350000000     0.838710000000     0.422890000000     0.0395693  
H95      H      0.351370000000     0.872000000000     0.442950000000     0.0385278  
H96      H      0.363260000000     0.996510000000     0.934600000000     0.0457408  
H97      H      0.825370000000     0.722290000000     0.395960000000     0.0379947  
H98      H      0.830660000000     0.726670000000     0.452430000000     0.0382102  
H99      H      0.755260000000     0.589290000000     0.459250000000     0.0435607  
H100     H      0.828860000000     0.599540000000     0.148510000000     0.037538   
H101     H      0.829390000000     0.598730000000     0.205360000000     0.038233   
H102     H      0.879800000000     0.734990000000     0.207360000000     0.0432257  
H103     H      0.689340000000     0.648800000000     0.273060000000     0.0416993  
H104     H      0.617360000000     0.614060000000     0.252430000000     0.0408126  
H105     H      0.618540000000     0.495850000000     0.242390000000     0.0446514  
H106     H      0.023810000000     0.707580000000     0.358710000000     0.0416962  
H107     H      0.951680000000     0.668180000000     0.338170000000     0.0403486  
H108     H      0.948130000000     0.785230000000     0.328640000000     0.044199   
H109     H      0.810310000000     0.029840000000     0.836950000000     0.039087   
H110     H      0.775190000000     0.958550000000     0.857630000000     0.0385255  
H111     H      0.652670000000     0.951180000000     0.849970000000     0.045475   
H112     H      0.875970000000     0.365180000000     0.756440000000     0.0398718  
H113     H      0.838980000000     0.293900000000     0.776620000000     0.0392734  
H114     H      0.953040000000     0.284520000000     0.769350000000     0.0457227  
H115     H      0.140400000000     0.698890000000     0.667970000000     0.039747   
H116     H      0.108740000000     0.627620000000     0.688850000000     0.0386757  
H117     H      0.983820000000     0.615410000000     0.685960000000     0.0454398  
H118     H      0.499340000000     0.618700000000     0.931860000000     0.0388695  
H119     H      0.533010000000     0.690190000000     0.911050000000     0.038305   
H120     H      0.656880000000     0.700590000000     0.918550000000     0.0453857  
H121     H      0.305710000000     0.026950000000     0.580410000000     0.0416154  
H122     H      0.271080000000     0.955220000000     0.602020000000     0.0405718  
H123     H      0.153920000000     0.957920000000     0.613500000000     0.0447969  
H124     H      0.364030000000     0.361660000000     0.493590000000     0.0408331  
H125     H      0.324270000000     0.289280000000     0.514160000000     0.0410132  
H126     H      0.441840000000     0.288820000000     0.530200000000     0.0444243  
H127     H      0.587630000000     0.768170000000     0.728910000000     0.0379206  
H128     H      0.584950000000     0.769390000000     0.785570000000     0.0380529  
H129     H      0.721360000000     0.821530000000     0.790360000000     0.0435203  
H130     H      0.719230000000     0.882080000000     0.539960000000     0.0374559  
H131     H      0.722370000000     0.880770000000     0.483300000000     0.0378914  
H132     H      0.585940000000     0.828240000000     0.477930000000     0.0438562  
H133     H      0.811420000000     0.779630000000     0.584140000000     0.0399958  
H134     H      0.776060000000     0.815840000000     0.604760000000     0.0386633  
H135     H      0.654200000000     0.699560000000     0.599290000000     0.0460445  
H136     H      0.648000000000     0.951240000000     0.661630000000     0.0413753  
H137     H      0.613310000000     0.989670000000     0.681540000000     0.040395   
H138     H      0.496870000000     0.870170000000     0.696460000000     0.0446708  
H139     H      0.930060000000     0.500050000000     0.872890000000     0.0372441  
H140     H      0.930270000000     0.500010000000     0.816250000000     0.0382082  
H141     H      0.066740000000     0.552010000000     0.815630000000     0.0435093  
H142     H      0.052690000000     0.490450000000     0.566730000000     0.0373087  
H143     H      0.052690000000     0.488260000000     0.623380000000     0.0382244  
H144     H      0.915910000000     0.433890000000     0.624650000000     0.0434008  
H145     H      0.837290000000     0.546980000000     0.517390000000     0.039593   
H146     H      0.871520000000     0.510340000000     0.496090000000     0.0392465  
H147     H      0.995000000000     0.624100000000     0.504960000000     0.0448205  
H148     H      0.383460000000     0.169010000000     0.958470000000     0.0366866  
H149     H      0.386920000000     0.172020000000     0.901670000000     0.0380181  
H150     H      0.251080000000     0.084810000000     0.896290000000     0.0441272  
H151     H      0.381890000000     0.222840000000     0.649250000000     0.0370235  
H152     H      0.382000000000     0.221960000000     0.706150000000     0.0375782  
H153     H      0.244670000000     0.145150000000     0.706980000000     0.0427294  
H154     H      0.437680000000     0.148690000000     0.768830000000     0.0394174  
H155     H      0.475660000000     0.115230000000     0.747600000000     0.0385681  
H156     H      0.362200000000     0.991230000000     0.754480000000     0.0461562  
H157     H      0.142980000000     0.439680000000     0.923530000000     0.0393461  
H158     H      0.110320000000     0.478090000000     0.945040000000     0.038499   
H159     H      0.985190000000     0.367140000000     0.934250000000     0.045596   
H160     H      0.274940000000     0.315370000000     0.859450000000     0.0406814  
H161     H      0.313250000000     0.280820000000     0.839190000000     0.0400722  
H162     H      0.193730000000     0.164890000000     0.822850000000     0.0447427  
H163     H      0.435270000000     0.503210000000     0.872930000000     0.0371396  
H164     H      0.434860000000     0.506630000000     0.816240000000     0.0381578  
H165     H      0.483030000000     0.419010000000     0.810290000000     0.0437378  
H166     H      0.480440000000     0.548800000000     0.621990000000     0.0378928  
H167     H      0.478020000000     0.548680000000     0.565240000000     0.0383497  
H168     H      0.561670000000     0.495700000000     0.561260000000     0.0442733  
H169     H      0.874930000000     0.141540000000     0.897030000000     0.036977   
H170     H      0.872780000000     0.135980000000     0.953690000000     0.037628   
H171     H      0.830840000000     0.228600000000     0.959840000000     0.0436652  
H172     H      0.829340000000     0.097530000000     0.647870000000     0.037668   
H173     H      0.834920000000     0.101110000000     0.704530000000     0.0384337  
H174     H      0.751530000000     0.154420000000     0.708710000000     0.0439872  
H175     H      0.096010000000     0.253600000000     0.791730000000     0.0375577  
H176     H      0.099390000000     0.251160000000     0.735080000000     0.0381011  
H177     H      0.143850000000     0.386330000000     0.729880000000     0.0441566  
H178     H      0.140570000000     0.253850000000     0.541810000000     0.0377412  
H179     H      0.135420000000     0.250670000000     0.485080000000     0.0386705  
H180     H      0.221840000000     0.386730000000     0.479500000000     0.0434769  
H181     H      0.951310000000     0.276730000000     0.580570000000     0.0416851  
H182     H      0.023550000000     0.314650000000     0.600960000000     0.0405583  
H183     H      0.022550000000     0.195560000000     0.612730000000     0.0442933  
H184     H      0.356780000000     0.366590000000     0.690110000000     0.0413011  
H185     H      0.283820000000     0.328130000000     0.670920000000     0.0408802  
H186     H      0.284280000000     0.446920000000     0.658880000000     0.044708   
H187     H      0.552170000000     0.058050000000     0.871720000000     0.0375754  
H188     H      0.553840000000     0.057220000000     0.814880000000     0.0382674  
H189     H      0.473730000000     0.920070000000     0.814800000000     0.0429357  
H190     H      0.428600000000     0.929130000000     0.623860000000     0.0384387  
H191     H      0.428390000000     0.926510000000     0.567340000000     0.0382381  
H192     H      0.486780000000     0.063770000000     0.562750000000     0.0436536  
H193     H      0.616980000000     0.996940000000     0.496600000000     0.0410106  
H194     H      0.689620000000     0.030570000000     0.516790000000     0.0406825  
H195     H      0.690210000000     0.149400000000     0.529030000000     0.045056   
H196     H      0.151150000000     0.893350000000     0.734120000000     0.037355   
H197     H      0.155730000000     0.897400000000     0.790810000000     0.0385529  
H198     H      0.209990000000     0.814800000000     0.791760000000     0.0431657  
H199     H      0.140970000000     0.760590000000     0.540020000000     0.0366299  
H200     H      0.142440000000     0.762420000000     0.483310000000     0.0383663  
H201     H      0.094750000000     0.850620000000     0.483260000000     0.0437806  
H202     H      0.279350000000     0.838710000000     0.922890000000     0.0393395  
H203     H      0.351370000000     0.872000000000     0.942950000000     0.0381911  
H204     H      0.363260000000     0.996510000000     0.434600000000     0.0460107  
H205     H      0.825370000000     0.722290000000     0.895960000000     0.0377791  
H206     H      0.830660000000     0.726670000000     0.952430000000     0.0375447  
H207     H      0.755260000000     0.589290000000     0.959250000000     0.0428374  
H208     H      0.828860000000     0.599540000000     0.648510000000     0.0374999  
H209     H      0.829390000000     0.598730000000     0.705360000000     0.0382319  
H210     H      0.879800000000     0.734990000000     0.707360000000     0.0432241  
H211     H      0.689340000000     0.648800000000     0.773060000000     0.0417022  
H212     H      0.617360000000     0.614070000000     0.752430000000     0.0408172  
H213     H      0.618540000000     0.495840000000     0.742390000000     0.0446149  
H214     H      0.023810000000     0.707580000000     0.858710000000     0.0415864  
H215     H      0.951680000000     0.668180000000     0.838170000000     0.0402664  
H216     H      0.948130000000     0.785230000000     0.828640000000     0.0441408  
N1       N      0.711190000000     0.949580000000     0.355540000000    -0.173732   
N2       N      0.752570000000     0.034040000000     0.331020000000    -0.177295   
N3       N      0.893280000000     0.283750000000     0.274470000000    -0.173267   
N4       N      0.937600000000     0.368600000000     0.250460000000    -0.176878   
N5       N      0.043870000000     0.616330000000     0.189320000000    -0.17337    
N6       N      0.081020000000     0.700530000000     0.164570000000    -0.177064   
N7       N      0.597530000000     0.700650000000     0.413070000000    -0.173768   
N8       N      0.558050000000     0.616300000000     0.437720000000    -0.177379   
N9       N      0.209830000000     0.951200000000     0.109220000000    -0.173544   
N10      N      0.250040000000     0.035100000000     0.083670000000    -0.177228   
N11      N      0.380160000000     0.283450000000     0.023240000000    -0.172681   
N12      N      0.426800000000     0.368030000000     0.999240000000    -0.182081   
N13      N      0.653310000000     0.797560000000     0.291960000000    -0.173503   
N14      N      0.656720000000     0.797660000000     0.226220000000    -0.17939    
N15      N      0.654050000000     0.852440000000     0.976630000000    -0.172292   
N16      N      0.650100000000     0.852350000000     0.042350000000    -0.180588   
N17      N      0.712440000000     0.760260000000     0.103840000000    -0.173234   
N18      N      0.753950000000     0.717200000000     0.079400000000    -0.17685    
N19      N      0.552200000000     0.932770000000     0.189870000000    -0.173016   
N20      N      0.592480000000     0.887740000000     0.166820000000    -0.177431   
N21      N      0.998400000000     0.524250000000     0.312000000000    -0.174072   
N22      N      0.998410000000     0.525620000000     0.377820000000    -0.179043   
N23      N      0.984400000000     0.462670000000     0.127970000000    -0.174144   
N24      N      0.984150000000     0.463950000000     0.062170000000    -0.178702   
N25      N      0.935930000000     0.564630000000     0.998720000000    -0.178252   
N26      N      0.895590000000     0.608320000000     0.023900000000    -0.176359   
N27      N      0.318850000000     0.130300000000     0.394960000000    -0.173437   
N28      N      0.314530000000     0.128210000000     0.460610000000    -0.17971    
N29      N      0.313340000000     0.181920000000     0.210400000000    -0.174099   
N30      N      0.312960000000     0.184530000000     0.144590000000    -0.17859    
N31      N      0.421570000000     0.050720000000     0.249120000000    -0.173551   
N32      N      0.376620000000     0.089820000000     0.274290000000    -0.17736    
N33      N      0.045250000000     0.425310000000     0.441450000000    -0.173662   
N34      N      0.083510000000     0.379800000000     0.416010000000    -0.177276   
N35      N      0.256300000000     0.219940000000     0.330220000000    -0.173443   
N36      N      0.211490000000     0.260030000000     0.353670000000    -0.178071   
N37      N      0.460720000000     0.464520000000     0.309240000000    -0.173335   
N38      N      0.463020000000     0.461970000000     0.374980000000    -0.179156   
N39      N      0.517980000000     0.520150000000     0.059240000000    -0.173118   
N40      N      0.519430000000     0.518660000000     0.124980000000    -0.179217   
N41      N      0.849670000000     0.180380000000     0.460750000000    -0.173303   
N42      N      0.850480000000     0.185590000000     0.395090000000    -0.179497   
N43      N      0.795380000000     0.130130000000     0.210550000000    -0.173303   
N44      N      0.790110000000     0.127410000000     0.144910000000    -0.179736   
N45      N      0.123940000000     0.319050000000     0.228530000000    -0.173238   
N46      N      0.121600000000     0.322250000000     0.294180000000    -0.179474   
N47      N      0.176720000000     0.318840000000     0.978310000000    -0.172141   
N48      N      0.181280000000     0.322860000000     0.044010000000    -0.180565   
N49      N      0.028560000000     0.257880000000     0.108040000000    -0.17346    
N50      N      0.943840000000     0.213160000000     0.084160000000    -0.177596   
N51      N      0.278450000000     0.384700000000     0.163870000000    -0.173283   
N52      N      0.363960000000     0.430000000000     0.186270000000    -0.177504   
N53      N      0.512450000000     0.988610000000     0.310910000000    -0.174097   
N54      N      0.511840000000     0.989330000000     0.376780000000    -0.178738   
N55      N      0.459640000000     0.995220000000     0.061090000000    -0.173664   
N56      N      0.461420000000     0.998510000000     0.126790000000    -0.179276   
N57      N      0.695530000000     0.092750000000     0.023880000000    -0.173056   
N58      N      0.610730000000     0.053650000000     0.000380000000    -0.176602   
N59      N      0.181650000000     0.854920000000     0.295250000000    -0.174104   
N60      N      0.177830000000     0.851460000000     0.229510000000    -0.17909    
N61      N      0.120430000000     0.808200000000     0.979400000000    -0.172802   
N62      N      0.116990000000     0.804660000000     0.045120000000    -0.180299   
N63      N      0.362570000000     0.936770000000     0.440470000000    -0.173663   
N64      N      0.277830000000     0.897880000000     0.416690000000    -0.177188   
N65      N      0.795050000000     0.658120000000     0.459770000000    -0.173804   
N66      N      0.790310000000     0.652790000000     0.394160000000    -0.179356   
N67      N      0.852920000000     0.666650000000     0.210240000000    -0.174065   
N68      N      0.853850000000     0.667950000000     0.144410000000    -0.178809   
N69      N      0.612510000000     0.552220000000     0.246120000000    -0.173614   
N70      N      0.697060000000     0.592770000000     0.270310000000    -0.177466   
N71      N      0.944470000000     0.723840000000     0.332140000000    -0.173946   
N72      N      0.029020000000     0.770280000000     0.356120000000    -0.177498   
N73      N      0.711190000000     0.949580000000     0.855540000000    -0.173763   
N74      N      0.752570000000     0.034040000000     0.831020000000    -0.17732    
N75      N      0.893280000000     0.283750000000     0.774470000000    -0.173277   
N76      N      0.937600000000     0.368600000000     0.750460000000    -0.176872   
N77      N      0.043870000000     0.616320000000     0.689320000000    -0.173463   
N78      N      0.081020000000     0.700530000000     0.664570000000    -0.177151   
N79      N      0.597530000000     0.700650000000     0.913070000000    -0.17383    
N80      N      0.558050000000     0.616310000000     0.937720000000    -0.177458   
N81      N      0.209830000000     0.951200000000     0.609220000000    -0.17355    
N82      N      0.250040000000     0.035100000000     0.583670000000    -0.17733    
N83      N      0.380160000000     0.283450000000     0.523230000000    -0.173508   
N84      N      0.426800000000     0.368030000000     0.499240000000    -0.177654   
N85      N      0.653310000000     0.797560000000     0.791960000000    -0.173498   
N86      N      0.656720000000     0.797660000000     0.726220000000    -0.179401   
N87      N      0.654050000000     0.852440000000     0.476630000000    -0.173464   
N88      N      0.650100000000     0.852350000000     0.542350000000    -0.179482   
N89      N      0.712440000000     0.760260000000     0.603840000000    -0.173227   
N90      N      0.753950000000     0.717190000000     0.579400000000    -0.177072   
N91      N      0.552210000000     0.932770000000     0.689870000000    -0.172973   
N92      N      0.592480000000     0.887740000000     0.666820000000    -0.177426   
N93      N      0.998400000000     0.524250000000     0.812000000000    -0.174055   
N94      N      0.998410000000     0.525620000000     0.877820000000    -0.179074   
N95      N      0.984400000000     0.462670000000     0.627970000000    -0.17418    
N96      N      0.984150000000     0.463950000000     0.562170000000    -0.178992   
N97      N      0.935930000000     0.564630000000     0.498710000000    -0.17371    
N98      N      0.895580000000     0.608320000000     0.523900000000    -0.177279   
N99      N      0.318850000000     0.130300000000     0.894960000000    -0.173505   
N100     N      0.314530000000     0.128210000000     0.960610000000    -0.178766   
N101     N      0.313340000000     0.181920000000     0.710400000000    -0.174081   
N102     N      0.312960000000     0.184530000000     0.644590000000    -0.17861    
N103     N      0.421570000000     0.050720000000     0.749120000000    -0.173555   
N104     N      0.376620000000     0.089820000000     0.774290000000    -0.177368   
N105     N      0.045250000000     0.425310000000     0.941450000000    -0.173693   
N106     N      0.083510000000     0.379800000000     0.916010000000    -0.17736    
N107     N      0.256300000000     0.219940000000     0.830220000000    -0.173455   
N108     N      0.211490000000     0.260030000000     0.853670000000    -0.178108   
N109     N      0.460720000000     0.464510000000     0.809240000000    -0.173291   
N110     N      0.463020000000     0.461970000000     0.874980000000    -0.179231   
N111     N      0.517980000000     0.520150000000     0.559240000000    -0.173325   
N112     N      0.519430000000     0.518660000000     0.624990000000    -0.17937    
N113     N      0.849670000000     0.180380000000     0.960750000000    -0.172241   
N114     N      0.850480000000     0.185590000000     0.895090000000    -0.179621   
N115     N      0.795380000000     0.130130000000     0.710550000000    -0.173303   
N116     N      0.790110000000     0.127410000000     0.644910000000    -0.179755   
N117     N      0.123940000000     0.319050000000     0.728530000000    -0.173237   
N118     N      0.121600000000     0.322250000000     0.794190000000    -0.179515   
N119     N      0.176720000000     0.318840000000     0.478310000000    -0.173293   
N120     N      0.181280000000     0.322860000000     0.544010000000    -0.179493   
N121     N      0.028560000000     0.257880000000     0.608040000000    -0.1735     
N122     N      0.943840000000     0.213160000000     0.584160000000    -0.177692   
N123     N      0.278450000000     0.384700000000     0.663870000000    -0.173258   
N124     N      0.363960000000     0.430000000000     0.686270000000    -0.177497   
N125     N      0.512450000000     0.988610000000     0.810920000000    -0.174029   
N126     N      0.511840000000     0.989330000000     0.876780000000    -0.178755   
N127     N      0.459650000000     0.995220000000     0.561090000000    -0.173915   
N128     N      0.461420000000     0.998510000000     0.626790000000    -0.179317   
N129     N      0.695530000000     0.092750000000     0.523880000000    -0.173423   
N130     N      0.610730000000     0.053650000000     0.500380000000    -0.177825   
N131     N      0.181650000000     0.854920000000     0.795250000000    -0.174066   
N132     N      0.177830000000     0.851460000000     0.729510000000    -0.179077   
N133     N      0.120430000000     0.808200000000     0.479400000000    -0.174013   
N134     N      0.116980000000     0.804660000000     0.545120000000    -0.179177   
N135     N      0.362570000000     0.936770000000     0.940470000000    -0.173754   
N136     N      0.277830000000     0.897880000000     0.916680000000    -0.17727    
N137     N      0.795050000000     0.658120000000     0.959770000000    -0.172719   
N138     N      0.790310000000     0.652790000000     0.894150000000    -0.179527   
N139     N      0.852920000000     0.666640000000     0.710240000000    -0.174048   
N140     N      0.853850000000     0.667950000000     0.644410000000    -0.178753   
N141     N      0.612510000000     0.552220000000     0.746120000000    -0.173646   
N142     N      0.697060000000     0.592770000000     0.770310000000    -0.177475   
N143     N      0.944470000000     0.723840000000     0.832140000000    -0.174016   
N144     N      0.029020000000     0.770280000000     0.856130000000    -0.177598   
O1       O      0.758010000000     0.656380000000     0.285380000000    -0.393727   
O2       O      0.882870000000     0.721970000000     0.314230000000    -0.398624   
O3       O      0.840470000000     0.695080000000     0.254690000000    -0.397543   
O4       O      0.802200000000     0.684890000000     0.345470000000    -0.3978     
O5       O      0.801520000000     0.622320000000     0.349900000000    -0.389961   
O6       O      0.838700000000     0.631850000000     0.258210000000    -0.393126   
O7       O      0.883480000000     0.660000000000     0.318300000000    -0.393221   
O8       O      0.758390000000     0.594640000000     0.290120000000    -0.394341   
O9       O      0.213940000000     0.895810000000     0.402890000000    -0.393423   
O10      O      0.088990000000     0.831160000000     0.375570000000    -0.397527   
O11      O      0.132410000000     0.849500000000     0.434960000000    -0.39428    
O12      O      0.168410000000     0.876140000000     0.343210000000    -0.394981   
O13      O      0.173570000000     0.816490000000     0.340460000000    -0.395921   
O14      O      0.136170000000     0.789110000000     0.431600000000    -0.396149   
O15      O      0.091480000000     0.770470000000     0.371460000000    -0.391032   
O16      O      0.217070000000     0.835330000000     0.400130000000    -0.394641   
O17      O      0.427090000000     0.997290000000     0.453030000000    -0.397015   
O18      O      0.552490000000     0.055220000000     0.978430000000    -0.398191   
O19      O      0.506420000000     0.025650000000     0.419790000000    -0.392634   
O20      O      0.474550000000     0.026590000000     0.011800000000    -0.391118   
O21      O      0.466020000000     0.960670000000     0.017750000000    -0.394592   
O22      O      0.500830000000     0.961260000000     0.427100000000    -0.394485   
O23      O      0.547310000000     0.991320000000     0.986550000000    -0.389833   
O24      O      0.421130000000     0.932440000000     0.458750000000    -0.393071   
O25      O      0.217260000000     0.384180000000     0.146530000000    -0.396761   
O26      O      0.091200000000     0.321140000000     0.120320000000    -0.392689   
O27      O      0.137760000000     0.350870000000     0.179500000000    -0.394336   
O28      O      0.172240000000     0.355280000000     0.087830000000    -0.391756   
O29      O      0.168250000000     0.291200000000     0.093060000000    -0.39372    
O30      O      0.134630000000     0.287210000000     0.185000000000    -0.393833   
O31      O      0.089240000000     0.258130000000     0.126330000000    -0.396919   
O32      O      0.215590000000     0.321260000000     0.152090000000    -0.39157    
O33      O      0.756690000000     0.153040000000     0.041740000000    -0.396714   
O34      O      0.882140000000     0.214700000000     0.069550000000    -0.392402   
O35      O      0.836830000000     0.198890000000     0.009810000000    -0.391538   
O36      O      0.800340000000     0.168750000000     0.100900000000    -0.39329    
O37      O      0.803580000000     0.108220000000     0.096170000000    -0.393353   
O38      O      0.839140000000     0.137930000000     0.004390000000    -0.387933   
O39      O      0.883270000000     0.153450000000     0.063830000000    -0.39428    
O40      O      0.757700000000     0.091410000000     0.036520000000    -0.392177   
O41      O      0.424580000000     0.490070000000     0.206110000000    -0.395139   
O42      O      0.550090000000     0.552770000000     0.233200000000    -0.393824   
O43      O      0.504310000000     0.536230000000     0.173740000000    -0.393798   
O44      O      0.469020000000     0.505810000000     0.265400000000    -0.393364   
O45      O      0.472370000000     0.445410000000     0.259960000000    -0.394686   
O46      O      0.508090000000     0.476040000000     0.168570000000    -0.391539   
O47      O      0.552040000000     0.491650000000     0.227700000000    -0.396125   
O48      O      0.426250000000     0.429120000000     0.200280000000    -0.391714   
O49      O      0.085790000000     0.317990000000     0.402530000000    -0.392518   
O50      O      0.151680000000     0.258760000000     0.375360000000    -0.397244   
O51      O      0.134780000000     0.285950000000     0.434720000000    -0.393098   
O52      O      0.103840000000     0.290020000000     0.343070000000    -0.394395   
O53      O      0.162310000000     0.355300000000     0.338140000000    -0.391169   
O54      O      0.194240000000     0.350400000000     0.429220000000    -0.394718   
O55      O      0.211400000000     0.322340000000     0.369020000000    -0.390271   
O56      O      0.145470000000     0.381970000000     0.397790000000    -0.394608   
O57      O      0.314940000000     0.092660000000     0.287030000000    -0.393642   
O58      O      0.255430000000     0.158730000000     0.312890000000    -0.400895   
O59      O      0.282200000000     0.140770000000     0.254420000000    -0.396671   
O60      O      0.287150000000     0.111560000000     0.346010000000    -0.396438   
O61      O      0.351850000000     0.170870000000     0.350840000000    -0.392603   
O62      O      0.347140000000     0.199940000000     0.258750000000    -0.393118   
O63      O      0.319090000000     0.219120000000     0.318130000000    -0.389451   
O64      O      0.378930000000     0.152240000000     0.291840000000    -0.393826   
O65      O      0.931170000000     0.502530000000     0.978920000000    -0.398942   
O66      O      0.985380000000     0.431000000000     0.453400000000    -0.394579   
O67      O      0.955710000000     0.449280000000     0.011790000000    -0.39176    
O68      O      0.960500000000     0.485050000000     0.420610000000    -0.396349   
O69      O      0.026470000000     0.541270000000     0.428310000000    -0.39352    
O70      O      0.021570000000     0.505610000000     0.019580000000    -0.393292   
O71      O      0.050930000000     0.487950000000     0.461270000000    -0.395353   
O72      O      0.996480000000     0.559830000000     0.986770000000    -0.392746   
O73      O      0.650970000000     0.762060000000     0.117710000000    -0.393822   
O74      O      0.591600000000     0.827590000000     0.145870000000    -0.395876   
O75      O      0.618040000000     0.810780000000     0.086260000000    -0.391415   
O76      O      0.623890000000     0.779950000000     0.177550000000    -0.395185   
O77      O      0.688660000000     0.839110000000     0.182240000000    -0.391034   
O78      O      0.682480000000     0.870320000000     0.091150000000    -0.394547   
O79      O      0.654910000000     0.887770000000     0.151490000000    -0.388453   
O80      O      0.714990000000     0.822170000000     0.122410000000    -0.393254   
O81      O      0.760210000000     0.656910000000     0.067700000000    -0.389513   
O82      O      0.832860000000     0.603360000000     0.042920000000    -0.396743   
O83      O      0.813520000000     0.631180000000     0.101160000000    -0.394236   
O84      O      0.780160000000     0.628030000000     0.009360000000    -0.390408   
O85      O      0.836130000000     0.694630000000     0.002770000000    -0.389973   
O86      O      0.869980000000     0.697210000000     0.094300000000    -0.392496   
O87      O      0.889820000000     0.668810000000     0.035790000000    -0.388479   
O88      O      0.817230000000     0.722400000000     0.061140000000    -0.395533   
O89      O      0.490960000000     0.931790000000     0.207170000000    -0.401049   
O90      O      0.424600000000     0.990180000000     0.234720000000    -0.396985   
O91      O      0.443760000000     0.964620000000     0.175060000000    -0.396897   
O92      O      0.472810000000     0.957240000000     0.266330000000    -0.396977   
O93      O      0.531920000000     0.022330000000     0.262590000000    -0.393401   
O94      O      0.502980000000     0.029450000000     0.170990000000    -0.390493   
O95      O      0.484180000000     0.054740000000     0.230600000000    -0.392108   
O96      O      0.551340000000     0.995570000000     0.202570000000    -0.387194   
O97      O      0.378470000000     0.222480000000     0.042540000000    -0.39728    
O98      O      0.313570000000     0.096460000000     0.069100000000    -0.392193   
O99      O      0.345580000000     0.142900000000     0.009870000000    -0.390275   
O100     O      0.347400000000     0.177280000000     0.101310000000    -0.393956   
O101     O      0.284740000000     0.175510000000     0.094310000000    -0.392266   
O102     O      0.281840000000     0.139160000000     0.003400000000    -0.387391   
O103     O      0.251520000000     0.095700000000     0.062640000000    -0.393605   
O104     O      0.316130000000     0.221190000000     0.034800000000    -0.391964   
O105     O      0.487470000000     0.426470000000     0.978170000000    -0.39745    
O106     O      0.554530000000     0.551500000000     0.450790000000    -0.392623   
O107     O      0.535880000000     0.505690000000     0.010360000000    -0.391199   
O108     O      0.504700000000     0.470420000000     0.418730000000    -0.389873   
O109     O      0.446110000000     0.476920000000     0.423950000000    -0.395284   
O110     O      0.477490000000     0.512650000000     0.015210000000    -0.391715   
O111     O      0.495520000000     0.556890000000     0.455750000000    -0.394968   
O112     O      0.428100000000     0.431060000000     0.983910000000    -0.3912     
O113     O      0.208830000000     0.887470000000     0.120810000000    -0.391648   
O114     O      0.142250000000     0.760580000000     0.145750000000    -0.395546   
O115     O      0.157780000000     0.807900000000     0.087800000000    -0.395833   
O116     O      0.193020000000     0.838960000000     0.179000000000    -0.393757   
O117     O      0.134650000000     0.844930000000     0.187320000000    -0.39446    
O118     O      0.099750000000     0.814630000000     0.095750000000    -0.392258   
O119     O      0.083400000000     0.765490000000     0.153740000000    -0.390676   
O120     O      0.149720000000     0.892100000000     0.129430000000    -0.397971   
O121     O      0.050560000000     0.559060000000     0.207180000000    -0.395189   
O122     O      0.997670000000     0.433900000000     0.235610000000    -0.388197   
O123     O      0.019960000000     0.478970000000     0.175570000000    -0.39558    
O124     O      0.029030000000     0.515610000000     0.267010000000    -0.394956   
O125     O      0.962860000000     0.507120000000     0.264440000000    -0.397252   
O126     O      0.953650000000     0.470170000000     0.173220000000    -0.396528   
O127     O      0.932460000000     0.427030000000     0.232960000000    -0.397892   
O128     O      0.984860000000     0.551630000000     0.204410000000    -0.393532   
O129     O      0.816070000000     0.092230000000     0.313120000000    -0.395923   
O130     O      0.888440000000     0.218380000000     0.287020000000    -0.390177   
O131     O      0.867320000000     0.170660000000     0.346100000000    -0.395012   
O132     O      0.836560000000     0.137890000000     0.254300000000    -0.394395   
O133     O      0.779420000000     0.146940000000     0.259280000000    -0.394519   
O134     O      0.810490000000     0.180190000000     0.351080000000    -0.391122   
O135     O      0.830310000000     0.225660000000     0.292270000000    -0.397888   
O136     O      0.758520000000     0.100110000000     0.318340000000    -0.391299   
O137     O      0.658050000000     0.765210000000     0.400030000000    -0.394545   
O138     O      0.714750000000     0.890990000000     0.373990000000    -0.398418   
O139     O      0.687920000000     0.845460000000     0.432830000000    -0.394279   
O140     O      0.685330000000     0.812260000000     0.340940000000    -0.39467    
O141     O      0.619710000000     0.804610000000     0.335840000000    -0.394468   
O142     O      0.622380000000     0.837960000000     0.427580000000    -0.394764   
O143     O      0.650010000000     0.885190000000     0.368430000000    -0.391919   
O144     O      0.593070000000     0.758970000000     0.394750000000    -0.395698   
O145     O      0.758020000000     0.656380000000     0.785380000000    -0.393696   
O146     O      0.882870000000     0.721960000000     0.814230000000    -0.398734   
O147     O      0.840470000000     0.695080000000     0.754690000000    -0.397514   
O148     O      0.802200000000     0.684890000000     0.845470000000    -0.397859   
O149     O      0.801520000000     0.622320000000     0.849900000000    -0.390054   
O150     O      0.838700000000     0.631850000000     0.758210000000    -0.393073   
O151     O      0.883480000000     0.660000000000     0.818300000000    -0.393271   
O152     O      0.758390000000     0.594640000000     0.790120000000    -0.3944     
O153     O      0.213940000000     0.895810000000     0.902890000000    -0.393589   
O154     O      0.088990000000     0.831150000000     0.875570000000    -0.397737   
O155     O      0.132410000000     0.849500000000     0.934960000000    -0.394423   
O156     O      0.168410000000     0.876150000000     0.843210000000    -0.394812   
O157     O      0.173570000000     0.816490000000     0.840460000000    -0.39583    
O158     O      0.136170000000     0.789110000000     0.931600000000    -0.396235   
O159     O      0.091480000000     0.770470000000     0.871450000000    -0.391115   
O160     O      0.217070000000     0.835330000000     0.900130000000    -0.394636   
O161     O      0.427090000000     0.997280000000     0.953020000000    -0.39724    
O162     O      0.552490000000     0.055220000000     0.478430000000    -0.397794   
O163     O      0.506420000000     0.025650000000     0.919790000000    -0.392419   
O164     O      0.474550000000     0.026590000000     0.511800000000    -0.3937     
O165     O      0.466020000000     0.960670000000     0.517750000000    -0.397198   
O166     O      0.500830000000     0.961260000000     0.927090000000    -0.394149   
O167     O      0.547310000000     0.991320000000     0.486550000000    -0.389668   
O168     O      0.421130000000     0.932440000000     0.958750000000    -0.393334   
O169     O      0.217260000000     0.384180000000     0.646530000000    -0.396909   
O170     O      0.091200000000     0.321140000000     0.620320000000    -0.39282    
O171     O      0.137760000000     0.350870000000     0.679500000000    -0.394338   
O172     O      0.172240000000     0.355280000000     0.587830000000    -0.391861   
O173     O      0.168250000000     0.291200000000     0.593060000000    -0.393856   
O174     O      0.134630000000     0.287210000000     0.685000000000    -0.39374    
O175     O      0.089240000000     0.258130000000     0.626330000000    -0.397021   
O176     O      0.215590000000     0.321260000000     0.652090000000    -0.39159    
O177     O      0.756690000000     0.153040000000     0.541740000000    -0.397041   
O178     O      0.882140000000     0.214700000000     0.569550000000    -0.392651   
O179     O      0.836830000000     0.198890000000     0.509810000000    -0.396089   
O180     O      0.800340000000     0.168750000000     0.600900000000    -0.393357   
O181     O      0.803580000000     0.108220000000     0.596170000000    -0.393434   
O182     O      0.839140000000     0.137930000000     0.504390000000    -0.392513   
O183     O      0.883270000000     0.153450000000     0.563830000000    -0.394557   
O184     O      0.757700000000     0.091410000000     0.536520000000    -0.392577   
O185     O      0.424580000000     0.490070000000     0.706110000000    -0.39513    
O186     O      0.550100000000     0.552780000000     0.733200000000    -0.393785   
O187     O      0.504310000000     0.536230000000     0.673740000000    -0.393756   
O188     O      0.469020000000     0.505810000000     0.765400000000    -0.393351   
O189     O      0.472370000000     0.445410000000     0.759960000000    -0.394684   
O190     O      0.508090000000     0.476040000000     0.668570000000    -0.391523   
O191     O      0.552040000000     0.491660000000     0.727700000000    -0.396257   
O192     O      0.426250000000     0.429120000000     0.700280000000    -0.391728   
O193     O      0.085790000000     0.317990000000     0.902530000000    -0.39263    
O194     O      0.151680000000     0.258760000000     0.875360000000    -0.39733    
O195     O      0.134780000000     0.285950000000     0.934720000000    -0.39329    
O196     O      0.103840000000     0.290020000000     0.843070000000    -0.394377   
O197     O      0.162310000000     0.355310000000     0.838140000000    -0.391097   
O198     O      0.194240000000     0.350390000000     0.929220000000    -0.394866   
O199     O      0.211400000000     0.322340000000     0.869020000000    -0.390313   
O200     O      0.145470000000     0.381970000000     0.897790000000    -0.394689   
O201     O      0.314940000000     0.092660000000     0.787020000000    -0.393613   
O202     O      0.255430000000     0.158730000000     0.812890000000    -0.40092    
O203     O      0.282200000000     0.140770000000     0.754420000000    -0.396615   
O204     O      0.287150000000     0.111560000000     0.846010000000    -0.396478   
O205     O      0.351850000000     0.170870000000     0.850840000000    -0.392717   
O206     O      0.347140000000     0.199940000000     0.758760000000    -0.393121   
O207     O      0.319090000000     0.219120000000     0.818140000000    -0.389484   
O208     O      0.378930000000     0.152240000000     0.791840000000    -0.393864   
O209     O      0.931170000000     0.502530000000     0.478920000000    -0.39818    
O210     O      0.985380000000     0.431000000000     0.953400000000    -0.394772   
O211     O      0.955710000000     0.449280000000     0.511790000000    -0.394308   
O212     O      0.960500000000     0.485050000000     0.920610000000    -0.395975   
O213     O      0.026470000000     0.541270000000     0.928300000000    -0.39324    
O214     O      0.021570000000     0.505610000000     0.519580000000    -0.395779   
O215     O      0.050930000000     0.487950000000     0.961270000000    -0.395574   
O216     O      0.996480000000     0.559830000000     0.486770000000    -0.391688   
O217     O      0.650970000000     0.762060000000     0.617710000000    -0.394085   
O218     O      0.591600000000     0.827580000000     0.645870000000    -0.395841   
O219     O      0.618030000000     0.810780000000     0.586260000000    -0.3915     
O220     O      0.623890000000     0.779950000000     0.677550000000    -0.395083   
O221     O      0.688660000000     0.839110000000     0.682240000000    -0.390999   
O222     O      0.682480000000     0.870330000000     0.591150000000    -0.394506   
O223     O      0.654910000000     0.887770000000     0.651490000000    -0.388403   
O224     O      0.714990000000     0.822170000000     0.622400000000    -0.393359   
O225     O      0.760210000000     0.656910000000     0.567700000000    -0.389695   
O226     O      0.832860000000     0.603360000000     0.542920000000    -0.397115   
O227     O      0.813520000000     0.631170000000     0.601160000000    -0.394167   
O228     O      0.780170000000     0.628040000000     0.509360000000    -0.395091   
O229     O      0.836120000000     0.694630000000     0.502770000000    -0.394652   
O230     O      0.869980000000     0.697220000000     0.594290000000    -0.392466   
O231     O      0.889820000000     0.668810000000     0.535790000000    -0.388884   
O232     O      0.817230000000     0.722400000000     0.561140000000    -0.395729   
O233     O      0.490960000000     0.931790000000     0.707170000000    -0.40106    
O234     O      0.424600000000     0.990180000000     0.734720000000    -0.396976   
O235     O      0.443760000000     0.964630000000     0.675060000000    -0.396998   
O236     O      0.472810000000     0.957240000000     0.766330000000    -0.396945   
O237     O      0.531920000000     0.022330000000     0.762590000000    -0.393379   
O238     O      0.502980000000     0.029450000000     0.670990000000    -0.390537   
O239     O      0.484180000000     0.054740000000     0.730600000000    -0.392118   
O240     O      0.551340000000     0.995570000000     0.702570000000    -0.387182   
O241     O      0.378470000000     0.222480000000     0.542540000000    -0.397572   
O242     O      0.313570000000     0.096460000000     0.569100000000    -0.392453   
O243     O      0.345580000000     0.142900000000     0.509870000000    -0.394806   
O244     O      0.347400000000     0.177280000000     0.601310000000    -0.394018   
O245     O      0.284740000000     0.175510000000     0.594310000000    -0.392343   
O246     O      0.281840000000     0.139160000000     0.503400000000    -0.392063   
O247     O      0.251520000000     0.095700000000     0.562640000000    -0.393917   
O248     O      0.316130000000     0.221190000000     0.534800000000    -0.392395   
O249     O      0.487470000000     0.426460000000     0.478170000000    -0.396386   
O250     O      0.554530000000     0.551500000000     0.950790000000    -0.39278    
O251     O      0.535880000000     0.505690000000     0.510360000000    -0.393691   
O252     O      0.504700000000     0.470430000000     0.918730000000    -0.38961    
O253     O      0.446110000000     0.476920000000     0.923950000000    -0.394896   
O254     O      0.477490000000     0.512650000000     0.515210000000    -0.394247   
O255     O      0.495520000000     0.556880000000     0.955750000000    -0.395265   
O256     O      0.428100000000     0.431060000000     0.483910000000    -0.39049    
O257     O      0.208830000000     0.887470000000     0.620810000000    -0.391751   
O258     O      0.142250000000     0.760580000000     0.645750000000    -0.395657   
O259     O      0.157780000000     0.807900000000     0.587800000000    -0.395982   
O260     O      0.193020000000     0.838970000000     0.679000000000    -0.393805   
O261     O      0.134650000000     0.844930000000     0.687320000000    -0.394444   
O262     O      0.099750000000     0.814630000000     0.595750000000    -0.39218    
O263     O      0.083400000000     0.765480000000     0.653740000000    -0.39068    
O264     O      0.149720000000     0.892100000000     0.629430000000    -0.397956   
O265     O      0.050560000000     0.559060000000     0.707180000000    -0.395267   
O266     O      0.997670000000     0.433890000000     0.735610000000    -0.38821    
O267     O      0.019950000000     0.478970000000     0.675570000000    -0.395743   
O268     O      0.029030000000     0.515610000000     0.767010000000    -0.395005   
O269     O      0.962860000000     0.507120000000     0.764440000000    -0.397249   
O270     O      0.953650000000     0.470170000000     0.673220000000    -0.396598   
O271     O      0.932460000000     0.427030000000     0.732960000000    -0.39783    
O272     O      0.984870000000     0.551630000000     0.704410000000    -0.393682   
O273     O      0.816070000000     0.092230000000     0.813110000000    -0.395941   
O274     O      0.888440000000     0.218380000000     0.787020000000    -0.390189   
O275     O      0.867320000000     0.170660000000     0.846100000000    -0.395076   
O276     O      0.836560000000     0.137890000000     0.754300000000    -0.394289   
O277     O      0.779420000000     0.146940000000     0.759280000000    -0.394565   
O278     O      0.810490000000     0.180190000000     0.851080000000    -0.391227   
O279     O      0.830310000000     0.225660000000     0.792260000000    -0.397912   
O280     O      0.758520000000     0.100110000000     0.818340000000    -0.391331   
O281     O      0.658050000000     0.765210000000     0.900040000000    -0.394708   
O282     O      0.714750000000     0.890990000000     0.873990000000    -0.398497   
O283     O      0.687920000000     0.845460000000     0.932830000000    -0.394424   
O284     O      0.685330000000     0.812260000000     0.840940000000    -0.394616   
O285     O      0.619710000000     0.804610000000     0.835840000000    -0.394583   
O286     O      0.622380000000     0.837960000000     0.927580000000    -0.394835   
O287     O      0.650010000000     0.885190000000     0.868440000000    -0.391931   
O288     O      0.593080000000     0.758970000000     0.894750000000    -0.395999   
S1       S      0.677020000000     0.029010000000     0.324060000000     0.0053339  
S2       S      0.008020000000     0.363090000000     0.244920000000     0.00488725 
S3       S      0.003710000000     0.692010000000     0.160000000000     0.00713717 
S4       S      0.634690000000     0.623690000000     0.444730000000     0.00641021 
S5       S      0.178000000000     0.037220000000     0.092490000000     0.000803176
S6       S      0.499460000000     0.369330000000     0.013000000000     0.000403216
S7       S      0.739530000000     0.825050000000     0.227880000000    -0.00526629 
S8       S      0.567230000000     0.824560000000     0.040300000000    -0.00330147 
S9       S      0.678590000000     0.646130000000     0.073600000000     0.00687549 
S10      S      0.522190000000     0.814140000000     0.180680000000    -0.00330871 
S11      S      0.082820000000     0.559640000000     0.378110000000    -0.00293534 
S12      S      0.899570000000     0.428610000000     0.062300000000    -0.00142178 
S13      S      0.971470000000     0.677970000000     0.031600000000     0.00878038 
S14      S      0.232160000000     0.071340000000     0.458720000000    -0.00303985 
S15      S      0.228070000000     0.139480000000     0.144640000000    -0.00175768 
S16      S      0.307790000000     0.012870000000     0.281510000000     0.00570995 
S17      S      0.006280000000     0.312320000000     0.406800000000     0.00665833 
S18      S      0.137880000000     0.190500000000     0.338700000000    -0.00425844 
S19      S      0.488690000000     0.405160000000     0.372650000000    -0.00384345 
S20      S      0.574420000000     0.490670000000     0.123920000000    -0.00393962 
S21      S      0.829250000000     0.245700000000     0.397650000000    -0.00492878 
S22      S      0.735060000000     0.155310000000     0.146270000000    -0.00478862 
S23      S      0.144380000000     0.404000000000     0.292270000000    -0.0039631  
S24      S      0.237550000000     0.405450000000     0.041830000000    -0.00508482 
S25      S      0.942120000000     0.139390000000     0.094290000000    -0.00271031 
S26      S      0.365370000000     0.503490000000     0.175550000000    -0.00249488 
S27      S      0.463560000000     0.904530000000     0.377200000000    -0.00299748 
S28      S      0.492450000000     0.082130000000     0.125370000000    -0.00422719 
S29      S      0.609410000000     0.125550000000     0.512200000000    -0.00138006 
S30      S      0.212580000000     0.801690000000     0.229390000000    -0.00390268 
S31      S      0.085510000000     0.857210000000     0.045890000000    -0.000620639
S32      S      0.286420000000     0.975120000000     0.409260000000     0.00635971 
S33      S      0.740390000000     0.568930000000     0.397010000000    -0.00333517 
S34      S      0.886960000000     0.752310000000     0.145120000000    -0.00235418 
S35      S      0.698550000000     0.520250000000     0.261970000000    -0.00101501 
S36      S      0.027480000000     0.842840000000     0.347710000000    -0.00186395 
S37      S      0.677020000000     0.029010000000     0.824060000000     0.00516207 
S38      S      0.008030000000     0.363090000000     0.744920000000     0.00491185 
S39      S      0.003710000000     0.692010000000     0.660000000000     0.00709022 
S40      S      0.634690000000     0.623690000000     0.944730000000     0.00510511 
S41      S      0.178000000000     0.037220000000     0.592490000000     0.000129683
S42      S      0.499460000000     0.369330000000     0.513000000000    -0.00123903 
S43      S      0.739530000000     0.825050000000     0.727880000000    -0.0052931  
S44      S      0.567230000000     0.824560000000     0.540300000000    -0.00427271 
S45      S      0.678590000000     0.646140000000     0.573600000000     0.00588994 
S46      S      0.522190000000     0.814140000000     0.680680000000    -0.00351087 
S47      S      0.082820000000     0.559640000000     0.878110000000    -0.00325098 
S48      S      0.899570000000     0.428610000000     0.562300000000    -0.00273723 
S49      S      0.971470000000     0.677980000000     0.531600000000     0.00734831 
S50      S      0.232160000000     0.071340000000     0.958720000000    -0.00511737 
S51      S      0.228070000000     0.139480000000     0.644640000000    -0.00190044 
S52      S      0.307790000000     0.012870000000     0.781510000000     0.00573557 
S53      S      0.006280000000     0.312320000000     0.906800000000     0.00617352 
S54      S      0.137880000000     0.190500000000     0.838700000000    -0.00452704 
S55      S      0.488680000000     0.405160000000     0.872650000000    -0.00446252 
S56      S      0.574430000000     0.490670000000     0.623920000000    -0.0041964  
S57      S      0.829250000000     0.245700000000     0.897650000000    -0.00568254 
S58      S      0.735070000000     0.155310000000     0.646270000000    -0.00492248 
S59      S      0.144380000000     0.404000000000     0.792270000000    -0.00397106 
S60      S      0.237550000000     0.405450000000     0.541830000000    -0.00606019 
S61      S      0.942120000000     0.139390000000     0.594290000000    -0.00335327 
S62      S      0.365370000000     0.503490000000     0.675550000000    -0.00276009 
S63      S      0.463560000000     0.904530000000     0.877200000000    -0.00326546 
S64      S      0.492450000000     0.082130000000     0.625370000000    -0.00449054 
S65      S      0.609410000000     0.125550000000     0.012200000000     0.000865921
S66      S      0.212580000000     0.801690000000     0.729390000000    -0.00397774 
S67      S      0.085510000000     0.857210000000     0.545890000000    -0.00122796 
S68      S      0.286420000000     0.975110000000     0.909260000000     0.00590522 
S69      S      0.740400000000     0.568930000000     0.897010000000    -0.00402746 
S70      S      0.886960000000     0.752320000000     0.645120000000    -0.00247767 
S71      S      0.698550000000     0.520250000000     0.761970000000    -0.00111094 
S72      S      0.027480000000     0.842840000000     0.847710000000    -0.00221947 


