data_structure

_audit_creation_method RASPA-1.0
_audit_creation_date 2023-5-19
_audit_author_name 'Poobodin Mano'

_cell_length_a    43.3171
_cell_length_b    43.2958
_cell_length_c    43.3039
_cell_angle_alpha 90
_cell_angle_beta  90
_cell_angle_gamma 90
_cell_volume      81214.2

_symmetry_cell_setting          triclinic
_symmetry_space_group_name_Hall 'P 1'
_symmetry_space_group_name_H-M  'P 1'
_symmetry_Int_Tables_number     1

_symmetry_equiv_pos_as_xyz 'x,y,z'

loop_
_atom_site_label
_atom_site_type_symbol
_atom_site_fract_x
_atom_site_fract_y
_atom_site_fract_z
_atom_site_charge
C1       C      0.993170000000     0.052510000000     0.240340000000     0.403813   
C2       C      0.491580000000     0.429580000000     0.242590000000     0.404884   
C3       C      0.053920000000     0.989950000000     0.240520000000     0.403547   
C4       C      0.431070000000     0.491860000000     0.243050000000     0.404192   
C5       C      0.991400000000     0.238950000000     0.303140000000     0.399387   
C6       C      0.991920000000     0.243830000000     0.180290000000     0.400253   
C7       C      0.992230000000     0.179870000000     0.239120000000     0.403436   
C8       C      0.990790000000     0.302470000000     0.243440000000     0.404802   
C9       C      0.303700000000     0.992400000000     0.243410000000     0.401935   
C10      C      0.181240000000     0.989900000000     0.241420000000     0.402808   
C11      C      0.242860000000     0.991810000000     0.180550000000     0.39972    
C12      C      0.241840000000     0.990640000000     0.303240000000     0.3996     
C13      C      0.240750000000     0.993900000000     0.053230000000     0.40549    
C14      C      0.241870000000     0.491170000000     0.430740000000     0.405651   
C15      C      0.242580000000     0.054690000000     0.990360000000     0.40261    
C16      C      0.239700000000     0.432050000000     0.493840000000     0.403597   
C17      C      0.052400000000     0.241640000000     0.991320000000     0.40379    
C18      C      0.429540000000     0.242800000000     0.492060000000     0.404449   
C19      C      0.991120000000     0.245310000000     0.052990000000     0.406107   
C20      C      0.491340000000     0.239350000000     0.430410000000     0.407751   
C21      C      0.242890000000     0.182100000000     0.989920000000     0.402687   
C22      C      0.238520000000     0.304730000000     0.994440000000     0.402822   
C23      C      0.179500000000     0.241450000000     0.991630000000     0.403684   
C24      C      0.302160000000     0.243970000000     0.992880000000     0.402921   
C25      C      0.381800000000     0.265350000000     0.477290000000     0.0307869  
C26      C      0.382240000000     0.220250000000     0.007920000000     0.0229102  
C27      C      0.349600000000     0.264510000000     0.476530000000     0.0321527  
C28      C      0.349890000000     0.220550000000     0.009220000000     0.067156   
C29      C      0.100190000000     0.263490000000     0.476080000000     0.0321932  
C30      C      0.099380000000     0.218140000000     0.006370000000     0.0232682  
C31      C      0.132350000000     0.262090000000     0.474860000000     0.0331899  
C32      C      0.131740000000     0.218250000000     0.007710000000     0.0697562  
C33      C      0.259770000000     0.384100000000     0.511490000000     0.0309921  
C34      C      0.216140000000     0.385050000000     0.978850000000     0.0191042  
C35      C      0.258020000000     0.351910000000     0.512890000000     0.0322585  
C36      C      0.215690000000     0.352700000000     0.978170000000     0.067396   
C37      C      0.221360000000     0.102660000000     0.005640000000     0.033596   
C38      C      0.265250000000     0.101720000000     0.973350000000     0.0195221  
C39      C      0.222510000000     0.134780000000     0.006300000000     0.0350574  
C40      C      0.265030000000     0.134180000000     0.971830000000     0.0652998  
C41      C      0.226170000000     0.012350000000     0.351050000000     0.0334659  
C42      C      0.257500000000     0.467770000000     0.350510000000     0.0200991  
C43      C      0.225290000000     0.011350000000     0.383220000000     0.0345281  
C44      C      0.258590000000     0.467870000000     0.382910000000     0.0653953  
C45      C      0.257110000000     0.014710000000     0.132850000000     0.0330344  
C46      C      0.226660000000     0.469500000000     0.133280000000     0.019861   
C47      C      0.257410000000     0.014200000000     0.100640000000     0.0348314  
C48      C      0.224860000000     0.470140000000     0.100940000000     0.0649875  
C49      C      0.468960000000     0.223770000000     0.351010000000     0.0306539  
C50      C      0.015330000000     0.252430000000     0.350330000000     0.0215512  
C51      C      0.470330000000     0.222440000000     0.383270000000     0.0327066  
C52      C      0.015620000000     0.253230000000     0.382640000000     0.0697304  
C53      C      0.514660000000     0.230890000000     0.132200000000     0.0314092  
C54      C      0.469220000000     0.260970000000     0.133460000000     0.0208429  
C55      C      0.513380000000     0.230390000000     0.100020000000     0.0333809  
C56      C      0.469260000000     0.262810000000     0.101070000000     0.0657743  
C57      C      0.101880000000     0.003440000000     0.217500000000     0.0341125  
C58      C      0.100920000000     0.474560000000     0.263740000000     0.0204238  
C59      C      0.134070000000     0.004650000000     0.219020000000     0.0348202  
C60      C      0.133250000000     0.473580000000     0.264140000000     0.0658918  
C61      C      0.383080000000     0.477420000000     0.221190000000     0.0312944  
C62      C      0.384070000000     0.006980000000     0.266970000000     0.0232982  
C63      C      0.350960000000     0.476670000000     0.222300000000     0.0322111  
C64      C      0.351650000000     0.008420000000     0.266910000000     0.0671769  
C65      C      0.003690000000     0.381910000000     0.266790000000     0.0343033  
C66      C      0.477710000000     0.382320000000     0.218820000000     0.0207272  
C67      C      0.004640000000     0.349690000000     0.265980000000     0.0362384  
C68      C      0.476210000000     0.349970000000     0.219140000000     0.067674   
C69      C      0.008450000000     0.100680000000     0.261520000000     0.0339609  
C70      C      0.477620000000     0.099330000000     0.216590000000     0.0202815  
C71      C      0.009290000000     0.132850000000     0.259960000000     0.0346508  
C72      C      0.476260000000     0.131720000000     0.216290000000     0.0658451  
C73      C      0.993170000000     0.052510000000     0.740340000000     0.403816   
C74      C      0.491580000000     0.429580000000     0.742600000000     0.404883   
C75      C      0.053920000000     0.989950000000     0.740520000000     0.403554   
C76      C      0.431070000000     0.491860000000     0.743050000000     0.404201   
C77      C      0.991400000000     0.238950000000     0.803140000000     0.399377   
C78      C      0.991920000000     0.243830000000     0.680290000000     0.40022    
C79      C      0.992230000000     0.179870000000     0.739120000000     0.403429   
C80      C      0.990790000000     0.302470000000     0.743440000000     0.404799   
C81      C      0.303700000000     0.992400000000     0.743410000000     0.401919   
C82      C      0.181240000000     0.989900000000     0.741420000000     0.402795   
C83      C      0.242860000000     0.991810000000     0.680550000000     0.39968    
C84      C      0.241840000000     0.990640000000     0.803240000000     0.399594   
C85      C      0.240750000000     0.993900000000     0.553230000000     0.405886   
C86      C      0.241870000000     0.491170000000     0.930740000000     0.405499   
C87      C      0.242580000000     0.054690000000     0.490360000000     0.403044   
C88      C      0.239700000000     0.432050000000     0.993840000000     0.403143   
C89      C      0.052400000000     0.241640000000     0.491320000000     0.404218   
C90      C      0.429540000000     0.242800000000     0.992060000000     0.404033   
C91      C      0.991120000000     0.245310000000     0.552990000000     0.406526   
C92      C      0.491340000000     0.239350000000     0.930410000000     0.407607   
C93      C      0.242890000000     0.182100000000     0.489920000000     0.406654   
C94      C      0.238520000000     0.304730000000     0.494440000000     0.406699   
C95      C      0.179500000000     0.241450000000     0.491630000000     0.407637   
C96      C      0.302160000000     0.243970000000     0.492880000000     0.406875   
C97      C      0.381800000000     0.265350000000     0.977290000000     0.0303464  
C98      C      0.382240000000     0.220250000000     0.507920000000     0.0200343  
C99      C      0.349600000000     0.264510000000     0.976530000000     0.0314845  
C100     C      0.349890000000     0.220550000000     0.509220000000     0.0654598  
C101     C      0.100190000000     0.263490000000     0.976080000000     0.0317965  
C102     C      0.099380000000     0.218140000000     0.506370000000     0.0204127  
C103     C      0.132350000000     0.262090000000     0.974860000000     0.0325461  
C104     C      0.131740000000     0.218250000000     0.507710000000     0.0679794  
C105     C      0.259770000000     0.384100000000     0.011490000000     0.0336944  
C106     C      0.216140000000     0.385050000000     0.478850000000     0.0195936  
C107     C      0.258020000000     0.351910000000     0.012890000000     0.0345955  
C108     C      0.215690000000     0.352700000000     0.478170000000     0.0678122  
C109     C      0.221360000000     0.102660000000     0.505640000000     0.0309297  
C110     C      0.265250000000     0.101720000000     0.473350000000     0.0200615  
C111     C      0.222510000000     0.134780000000     0.506300000000     0.032754   
C112     C      0.265030000000     0.134180000000     0.471830000000     0.0657039  
C113     C      0.226170000000     0.012350000000     0.851050000000     0.0334438  
C114     C      0.257500000000     0.467770000000     0.850510000000     0.0200661  
C115     C      0.225290000000     0.011350000000     0.883220000000     0.0344966  
C116     C      0.258590000000     0.467870000000     0.882910000000     0.065442   
C117     C      0.257110000000     0.014710000000     0.632850000000     0.032932   
C118     C      0.226660000000     0.469500000000     0.633280000000     0.0196834  
C119     C      0.257410000000     0.014200000000     0.600650000000     0.0347061  
C120     C      0.224860000000     0.470140000000     0.600940000000     0.065154   
C121     C      0.468960000000     0.223770000000     0.851010000000     0.0306226  
C122     C      0.015330000000     0.252430000000     0.850330000000     0.0215166  
C123     C      0.470330000000     0.222440000000     0.883270000000     0.0326588  
C124     C      0.015620000000     0.253230000000     0.882640000000     0.0697305  
C125     C      0.514660000000     0.230890000000     0.632200000000     0.0312997  
C126     C      0.469220000000     0.260970000000     0.633460000000     0.0206733  
C127     C      0.513380000000     0.230390000000     0.600020000000     0.0332581  
C128     C      0.469260000000     0.262810000000     0.601070000000     0.0659251  
C129     C      0.101880000000     0.003440000000     0.717510000000     0.0341756  
C130     C      0.100920000000     0.474560000000     0.763740000000     0.0204016  
C131     C      0.134070000000     0.004650000000     0.719020000000     0.0347443  
C132     C      0.133250000000     0.473580000000     0.764140000000     0.0658866  
C133     C      0.383080000000     0.477420000000     0.721190000000     0.0313127  
C134     C      0.384070000000     0.006980000000     0.766970000000     0.023288   
C135     C      0.350960000000     0.476670000000     0.722290000000     0.03209    
C136     C      0.351650000000     0.008420000000     0.766910000000     0.0671833  
C137     C      0.003690000000     0.381910000000     0.766790000000     0.0342132  
C138     C      0.477710000000     0.382320000000     0.718810000000     0.020669   
C139     C      0.004640000000     0.349690000000     0.765980000000     0.0362462  
C140     C      0.476210000000     0.349970000000     0.719140000000     0.0677063  
C141     C      0.008450000000     0.100680000000     0.761520000000     0.0339444  
C142     C      0.477620000000     0.099330000000     0.716590000000     0.0202324  
C143     C      0.009290000000     0.132850000000     0.759960000000     0.0346367  
C144     C      0.476260000000     0.131720000000     0.716290000000     0.065876   
C145     C      0.993170000000     0.552510000000     0.240340000000     0.404155   
C146     C      0.491580000000     0.929580000000     0.242590000000     0.404514   
C147     C      0.053920000000     0.489950000000     0.240520000000     0.403971   
C148     C      0.431070000000     0.991860000000     0.243050000000     0.403764   
C149     C      0.991400000000     0.738950000000     0.303140000000     0.399369   
C150     C      0.991920000000     0.743830000000     0.180290000000     0.400238   
C151     C      0.992230000000     0.679870000000     0.239120000000     0.403264   
C152     C      0.990790000000     0.802470000000     0.243440000000     0.404826   
C153     C      0.303700000000     0.492400000000     0.243410000000     0.405873   
C154     C      0.181240000000     0.489900000000     0.241420000000     0.406687   
C155     C      0.242860000000     0.491810000000     0.180550000000     0.403604   
C156     C      0.241840000000     0.490640000000     0.303240000000     0.403484   
C157     C      0.240750000000     0.493900000000     0.053230000000     0.405926   
C158     C      0.241870000000     0.991170000000     0.430740000000     0.40524    
C159     C      0.242580000000     0.554690000000     0.990360000000     0.402989   
C160     C      0.239700000000     0.932050000000     0.493840000000     0.403475   
C161     C      0.052400000000     0.741640000000     0.991320000000     0.403788   
C162     C      0.429540000000     0.742800000000     0.492060000000     0.404225   
C163     C      0.991120000000     0.745310000000     0.052990000000     0.406115   
C164     C      0.491340000000     0.739350000000     0.430410000000     0.407756   
C165     C      0.242890000000     0.682100000000     0.989920000000     0.402668   
C166     C      0.238520000000     0.804730000000     0.994440000000     0.402837   
C167     C      0.179500000000     0.741450000000     0.991630000000     0.403681   
C168     C      0.302160000000     0.743970000000     0.992880000000     0.402918   
C169     C      0.381800000000     0.765350000000     0.477290000000     0.0307617  
C170     C      0.382240000000     0.720260000000     0.007920000000     0.0229536  
C171     C      0.349600000000     0.764510000000     0.476530000000     0.0321372  
C172     C      0.349890000000     0.720550000000     0.009220000000     0.0671558  
C173     C      0.100190000000     0.763500000000     0.476080000000     0.0320188  
C174     C      0.099380000000     0.718140000000     0.006370000000     0.0232819  
C175     C      0.132350000000     0.762090000000     0.474860000000     0.0332478  
C176     C      0.131740000000     0.718250000000     0.007710000000     0.0697718  
C177     C      0.259770000000     0.884100000000     0.511490000000     0.030969   
C178     C      0.216140000000     0.885050000000     0.978850000000     0.0190749  
C179     C      0.258020000000     0.851910000000     0.512890000000     0.0322451  
C180     C      0.215690000000     0.852700000000     0.978170000000     0.0673956  
C181     C      0.221360000000     0.602660000000     0.005640000000     0.0334866  
C182     C      0.265250000000     0.601720000000     0.973350000000     0.0193798  
C183     C      0.222510000000     0.634780000000     0.006300000000     0.034963   
C184     C      0.265030000000     0.634180000000     0.971830000000     0.0652734  
C185     C      0.226170000000     0.512350000000     0.351050000000     0.0311936  
C186     C      0.257500000000     0.967770000000     0.350510000000     0.0194113  
C187     C      0.225290000000     0.511350000000     0.383220000000     0.0318122  
C188     C      0.258590000000     0.967880000000     0.382910000000     0.065176   
C189     C      0.257110000000     0.514710000000     0.132850000000     0.0307665  
C190     C      0.226660000000     0.969500000000     0.133280000000     0.0192168  
C191     C      0.257410000000     0.514200000000     0.100640000000     0.0321394  
C192     C      0.224860000000     0.970140000000     0.100940000000     0.0647169  
C193     C      0.468960000000     0.723770000000     0.351010000000     0.0306348  
C194     C      0.015330000000     0.752430000000     0.350330000000     0.0215219  
C195     C      0.470330000000     0.722440000000     0.383270000000     0.032653   
C196     C      0.015620000000     0.753230000000     0.382640000000     0.069732   
C197     C      0.514660000000     0.730890000000     0.132200000000     0.0313796  
C198     C      0.469220000000     0.760980000000     0.133460000000     0.020751   
C199     C      0.513380000000     0.730390000000     0.100020000000     0.0333508  
C200     C      0.469260000000     0.762810000000     0.101070000000     0.0658077  
C201     C      0.101880000000     0.503440000000     0.217500000000     0.0313977  
C202     C      0.100920000000     0.974560000000     0.263740000000     0.0199222  
C203     C      0.134070000000     0.504650000000     0.219020000000     0.0324856  
C204     C      0.133250000000     0.973580000000     0.264140000000     0.0655135  
C205     C      0.383080000000     0.977420000000     0.221190000000     0.0308688  
C206     C      0.384070000000     0.506980000000     0.266970000000     0.0204071  
C207     C      0.350960000000     0.976670000000     0.222300000000     0.0315464  
C208     C      0.351650000000     0.508420000000     0.266910000000     0.0654955  
C209     C      0.003690000000     0.881910000000     0.266790000000     0.0342546  
C210     C      0.477710000000     0.882320000000     0.218820000000     0.0206763  
C211     C      0.004640000000     0.849690000000     0.265980000000     0.036224   
C212     C      0.476210000000     0.849970000000     0.219140000000     0.0676762  
C213     C      0.008450000000     0.600680000000     0.261520000000     0.0338419  
C214     C      0.477620000000     0.599330000000     0.216590000000     0.020127   
C215     C      0.009290000000     0.632850000000     0.259960000000     0.0345574  
C216     C      0.476260000000     0.631720000000     0.216290000000     0.0658299  
C217     C      0.993170000000     0.552510000000     0.740340000000     0.404159   
C218     C      0.491580000000     0.929580000000     0.742600000000     0.404513   
C219     C      0.053920000000     0.489950000000     0.740520000000     0.403978   
C220     C      0.431070000000     0.991860000000     0.743050000000     0.403773   
C221     C      0.991400000000     0.738950000000     0.803140000000     0.399359   
C222     C      0.991920000000     0.743830000000     0.680290000000     0.400205   
C223     C      0.992230000000     0.679870000000     0.739120000000     0.403257   
C224     C      0.990790000000     0.802470000000     0.743440000000     0.404823   
C225     C      0.303700000000     0.492400000000     0.743410000000     0.405865   
C226     C      0.181240000000     0.489900000000     0.741420000000     0.406682   
C227     C      0.242860000000     0.491810000000     0.680550000000     0.403574   
C228     C      0.241840000000     0.490640000000     0.803240000000     0.403484   
C229     C      0.240750000000     0.493900000000     0.553230000000     0.406323   
C230     C      0.241870000000     0.991170000000     0.930740000000     0.405089   
C231     C      0.242580000000     0.554690000000     0.490360000000     0.403424   
C232     C      0.239700000000     0.932050000000     0.993840000000     0.403021   
C233     C      0.052400000000     0.741640000000     0.491320000000     0.404215   
C234     C      0.429540000000     0.742800000000     0.992060000000     0.403808   
C235     C      0.991120000000     0.745310000000     0.552990000000     0.406535   
C236     C      0.491340000000     0.739350000000     0.930410000000     0.407611   
C237     C      0.242890000000     0.682100000000     0.489920000000     0.406646   
C238     C      0.238520000000     0.804730000000     0.494440000000     0.406721   
C239     C      0.179500000000     0.741450000000     0.491630000000     0.407643   
C240     C      0.302160000000     0.743970000000     0.492880000000     0.406881   
C241     C      0.381800000000     0.765350000000     0.977290000000     0.0303208  
C242     C      0.382240000000     0.720260000000     0.507920000000     0.0200693  
C243     C      0.349600000000     0.764510000000     0.976530000000     0.0314676  
C244     C      0.349890000000     0.720550000000     0.509220000000     0.0654565  
C245     C      0.100190000000     0.763500000000     0.976080000000     0.0316211  
C246     C      0.099380000000     0.718140000000     0.506370000000     0.0204181  
C247     C      0.132350000000     0.762090000000     0.974860000000     0.032603   
C248     C      0.131740000000     0.718250000000     0.507710000000     0.0679912  
C249     C      0.259770000000     0.884100000000     0.011490000000     0.0336734  
C250     C      0.216140000000     0.885050000000     0.478850000000     0.0195644  
C251     C      0.258020000000     0.851910000000     0.012890000000     0.0345857  
C252     C      0.215690000000     0.852700000000     0.478170000000     0.0678121  
C253     C      0.221360000000     0.602660000000     0.505640000000     0.0308068  
C254     C      0.265250000000     0.601720000000     0.473350000000     0.0199207  
C255     C      0.222510000000     0.634780000000     0.506300000000     0.0326517  
C256     C      0.265030000000     0.634180000000     0.471830000000     0.0656789  
C257     C      0.226170000000     0.512350000000     0.851050000000     0.0311676  
C258     C      0.257500000000     0.967770000000     0.850510000000     0.0193779  
C259     C      0.225290000000     0.511350000000     0.883220000000     0.0317784  
C260     C      0.258590000000     0.967880000000     0.882910000000     0.0652224  
C261     C      0.257110000000     0.514710000000     0.632850000000     0.0306564  
C262     C      0.226660000000     0.969500000000     0.633280000000     0.0190371  
C263     C      0.257410000000     0.514200000000     0.600650000000     0.0320024  
C264     C      0.224860000000     0.970140000000     0.600940000000     0.0648827  
C265     C      0.468960000000     0.723770000000     0.851010000000     0.0306035  
C266     C      0.015330000000     0.752430000000     0.850330000000     0.0214872  
C267     C      0.470330000000     0.722440000000     0.883270000000     0.032605   
C268     C      0.015620000000     0.753230000000     0.882640000000     0.069732   
C269     C      0.514660000000     0.730890000000     0.632200000000     0.0312697  
C270     C      0.469220000000     0.760980000000     0.633460000000     0.0205809  
C271     C      0.513380000000     0.730390000000     0.600020000000     0.0332276  
C272     C      0.469260000000     0.762810000000     0.601070000000     0.0659588  
C273     C      0.101880000000     0.503440000000     0.717510000000     0.0314527  
C274     C      0.100920000000     0.974560000000     0.763740000000     0.0198995  
C275     C      0.134070000000     0.504650000000     0.719020000000     0.0324044  
C276     C      0.133250000000     0.973580000000     0.764140000000     0.0655073  
C277     C      0.383080000000     0.977420000000     0.721190000000     0.0308865  
C278     C      0.384070000000     0.506980000000     0.766970000000     0.0203901  
C279     C      0.350960000000     0.976670000000     0.722290000000     0.0314238  
C280     C      0.351650000000     0.508420000000     0.766910000000     0.0654976  
C281     C      0.003690000000     0.881910000000     0.766790000000     0.0341645  
C282     C      0.477710000000     0.882320000000     0.718810000000     0.0206179  
C283     C      0.004640000000     0.849690000000     0.765980000000     0.0362318  
C284     C      0.476210000000     0.849970000000     0.719140000000     0.0677086  
C285     C      0.008450000000     0.600680000000     0.761520000000     0.0338251  
C286     C      0.477620000000     0.599330000000     0.716590000000     0.0200773  
C287     C      0.009290000000     0.632850000000     0.759960000000     0.0345432  
C288     C      0.476260000000     0.631720000000     0.716290000000     0.0658609  
C289     C      0.493170000000     0.052510000000     0.240340000000     0.404246   
C290     C      0.991590000000     0.429580000000     0.242590000000     0.404448   
C291     C      0.553920000000     0.989950000000     0.240520000000     0.403882   
C292     C      0.931070000000     0.491860000000     0.243050000000     0.404137   
C293     C      0.491400000000     0.238950000000     0.303140000000     0.403345   
C294     C      0.491920000000     0.243830000000     0.180290000000     0.404089   
C295     C      0.492230000000     0.179870000000     0.239120000000     0.407358   
C296     C      0.490790000000     0.302470000000     0.243440000000     0.408743   
C297     C      0.803700000000     0.992400000000     0.243410000000     0.402007   
C298     C      0.681240000000     0.989900000000     0.241420000000     0.402776   
C299     C      0.742860000000     0.991810000000     0.180550000000     0.399696   
C300     C      0.741840000000     0.990640000000     0.303240000000     0.399586   
C301     C      0.740750000000     0.993900000000     0.053230000000     0.405499   
C302     C      0.741870000000     0.491170000000     0.430740000000     0.405659   
C303     C      0.742580000000     0.054690000000     0.990360000000     0.402377   
C304     C      0.739700000000     0.432050000000     0.493840000000     0.403605   
C305     C      0.552400000000     0.241640000000     0.991320000000     0.404166   
C306     C      0.929530000000     0.242800000000     0.492060000000     0.404198   
C307     C      0.491130000000     0.245310000000     0.052990000000     0.406528   
C308     C      0.991340000000     0.239350000000     0.430410000000     0.407267   
C309     C      0.742890000000     0.182100000000     0.989920000000     0.402717   
C310     C      0.738520000000     0.304730000000     0.994440000000     0.402819   
C311     C      0.679500000000     0.241450000000     0.991630000000     0.403663   
C312     C      0.802160000000     0.243970000000     0.992880000000     0.402922   
C313     C      0.881800000000     0.265350000000     0.477290000000     0.0307726  
C314     C      0.882240000000     0.220250000000     0.007920000000     0.0228936  
C315     C      0.849600000000     0.264510000000     0.476530000000     0.0321277  
C316     C      0.849890000000     0.220550000000     0.009220000000     0.0671674  
C317     C      0.600190000000     0.263490000000     0.476080000000     0.0320717  
C318     C      0.599380000000     0.218140000000     0.006370000000     0.0231281  
C319     C      0.632350000000     0.262090000000     0.474860000000     0.0330982  
C320     C      0.631740000000     0.218250000000     0.007710000000     0.0697374  
C321     C      0.759770000000     0.384100000000     0.511490000000     0.030939   
C322     C      0.716140000000     0.385050000000     0.978850000000     0.0190741  
C323     C      0.758020000000     0.351910000000     0.512890000000     0.0323236  
C324     C      0.715690000000     0.352700000000     0.978170000000     0.0673635  
C325     C      0.721360000000     0.102660000000     0.005640000000     0.0335604  
C326     C      0.765250000000     0.101720000000     0.973350000000     0.0194875  
C327     C      0.722510000000     0.134780000000     0.006300000000     0.0350379  
C328     C      0.765030000000     0.134180000000     0.971830000000     0.0653113  
C329     C      0.726170000000     0.012350000000     0.351050000000     0.0334453  
C330     C      0.757500000000     0.467770000000     0.350510000000     0.0200722  
C331     C      0.725290000000     0.011350000000     0.383220000000     0.0344992  
C332     C      0.758590000000     0.467870000000     0.382910000000     0.0654001  
C333     C      0.757120000000     0.014710000000     0.132850000000     0.0329477  
C334     C      0.726660000000     0.469500000000     0.133280000000     0.019807   
C335     C      0.757410000000     0.014200000000     0.100640000000     0.0348495  
C336     C      0.724860000000     0.470140000000     0.100940000000     0.0650139  
C337     C      0.968960000000     0.223770000000     0.351010000000     0.0300938  
C338     C      0.515330000000     0.252430000000     0.350330000000     0.0191262  
C339     C      0.970320000000     0.222440000000     0.383270000000     0.0321765  
C340     C      0.515620000000     0.253230000000     0.382640000000     0.0676229  
C341     C      0.014660000000     0.230890000000     0.132200000000     0.0337231  
C342     C      0.969220000000     0.260970000000     0.133460000000     0.020271   
C343     C      0.013380000000     0.230390000000     0.100020000000     0.0361533  
C344     C      0.969260000000     0.262810000000     0.101070000000     0.0655151  
C345     C      0.601880000000     0.003440000000     0.217500000000     0.033972   
C346     C      0.600920000000     0.474560000000     0.263740000000     0.0202638  
C347     C      0.634070000000     0.004650000000     0.219020000000     0.0347135  
C348     C      0.633250000000     0.473580000000     0.264140000000     0.0658611  
C349     C      0.883080000000     0.477420000000     0.221190000000     0.03125    
C350     C      0.884070000000     0.006980000000     0.266970000000     0.0232413  
C351     C      0.850960000000     0.476670000000     0.222300000000     0.0321969  
C352     C      0.851650000000     0.008420000000     0.266910000000     0.0671929  
C353     C      0.503690000000     0.381910000000     0.266790000000     0.0315913  
C354     C      0.977700000000     0.382320000000     0.218820000000     0.0201901  
C355     C      0.504640000000     0.349690000000     0.265980000000     0.0338812  
C356     C      0.976210000000     0.349970000000     0.219140000000     0.0672658  
C357     C      0.508450000000     0.100680000000     0.261520000000     0.0312448  
C358     C      0.977620000000     0.099330000000     0.216590000000     0.0197771  
C359     C      0.509290000000     0.132850000000     0.259960000000     0.0323143  
C360     C      0.976260000000     0.131720000000     0.216290000000     0.065455   
C361     C      0.493170000000     0.052510000000     0.740340000000     0.40425    
C362     C      0.991590000000     0.429580000000     0.742600000000     0.404446   
C363     C      0.553920000000     0.989950000000     0.740520000000     0.40389    
C364     C      0.931070000000     0.491860000000     0.743050000000     0.404146   
C365     C      0.491400000000     0.238950000000     0.803140000000     0.40334    
C366     C      0.491920000000     0.243830000000     0.680290000000     0.404065   
C367     C      0.492230000000     0.179870000000     0.739120000000     0.407359   
C368     C      0.490790000000     0.302470000000     0.743440000000     0.408746   
C369     C      0.803700000000     0.992400000000     0.743410000000     0.401992   
C370     C      0.681240000000     0.989900000000     0.741420000000     0.402763   
C371     C      0.742860000000     0.991810000000     0.680550000000     0.399656   
C372     C      0.741840000000     0.990640000000     0.803240000000     0.39958    
C373     C      0.740750000000     0.993900000000     0.553230000000     0.405896   
C374     C      0.741870000000     0.491170000000     0.930740000000     0.405507   
C375     C      0.742580000000     0.054690000000     0.490360000000     0.402812   
C376     C      0.739700000000     0.432050000000     0.993840000000     0.40315    
C377     C      0.552400000000     0.241640000000     0.491320000000     0.404595   
C378     C      0.929530000000     0.242800000000     0.992060000000     0.403781   
C379     C      0.491130000000     0.245310000000     0.552990000000     0.406948   
C380     C      0.991340000000     0.239350000000     0.930410000000     0.407122   
C381     C      0.742890000000     0.182100000000     0.489920000000     0.406692   
C382     C      0.738520000000     0.304730000000     0.494440000000     0.406703   
C383     C      0.679500000000     0.241450000000     0.491630000000     0.407626   
C384     C      0.802160000000     0.243970000000     0.492880000000     0.406882   
C385     C      0.881800000000     0.265350000000     0.977290000000     0.030332   
C386     C      0.882240000000     0.220250000000     0.507920000000     0.0200156  
C387     C      0.849600000000     0.264510000000     0.976530000000     0.0314591  
C388     C      0.849890000000     0.220550000000     0.509220000000     0.0654688  
C389     C      0.600190000000     0.263490000000     0.976080000000     0.031674   
C390     C      0.599380000000     0.218140000000     0.506370000000     0.020259   
C391     C      0.632350000000     0.262090000000     0.974860000000     0.0324523  
C392     C      0.631740000000     0.218250000000     0.507710000000     0.067955   
C393     C      0.759770000000     0.384100000000     0.011490000000     0.033647   
C394     C      0.716140000000     0.385050000000     0.478850000000     0.0195642  
C395     C      0.758020000000     0.351910000000     0.012890000000     0.0346663  
C396     C      0.715690000000     0.352700000000     0.478170000000     0.0677804  
C397     C      0.721360000000     0.102660000000     0.505640000000     0.0308878  
C398     C      0.765250000000     0.101720000000     0.473350000000     0.0200277  
C399     C      0.722510000000     0.134780000000     0.506300000000     0.0327291  
C400     C      0.765030000000     0.134180000000     0.471830000000     0.0657162  
C401     C      0.726170000000     0.012350000000     0.851050000000     0.0334231  
C402     C      0.757500000000     0.467770000000     0.850510000000     0.0200392  
C403     C      0.725290000000     0.011350000000     0.883220000000     0.0344676  
C404     C      0.758590000000     0.467870000000     0.882910000000     0.0654469  
C405     C      0.757120000000     0.014710000000     0.632850000000     0.0328449  
C406     C      0.726660000000     0.469500000000     0.633280000000     0.0196288  
C407     C      0.757410000000     0.014200000000     0.600650000000     0.034724   
C408     C      0.724860000000     0.470140000000     0.600940000000     0.065181   
C409     C      0.968960000000     0.223770000000     0.851010000000     0.0300622  
C410     C      0.515330000000     0.252430000000     0.850330000000     0.0190881  
C411     C      0.970320000000     0.222440000000     0.883270000000     0.0321286  
C412     C      0.515620000000     0.253230000000     0.882640000000     0.0676218  
C413     C      0.014660000000     0.230890000000     0.632200000000     0.0336212  
C414     C      0.969220000000     0.260970000000     0.633460000000     0.0200997  
C415     C      0.013380000000     0.230390000000     0.600020000000     0.0360436  
C416     C      0.969260000000     0.262810000000     0.601070000000     0.0656655  
C417     C      0.601880000000     0.003440000000     0.717510000000     0.0340346  
C418     C      0.600920000000     0.474560000000     0.763740000000     0.0202413  
C419     C      0.634070000000     0.004650000000     0.719020000000     0.0346373  
C420     C      0.633250000000     0.473580000000     0.764140000000     0.0658559  
C421     C      0.883080000000     0.477420000000     0.721190000000     0.0312682  
C422     C      0.884070000000     0.006980000000     0.766970000000     0.023231   
C423     C      0.850960000000     0.476670000000     0.722290000000     0.0320757  
C424     C      0.851650000000     0.008420000000     0.766910000000     0.0671992  
C425     C      0.503690000000     0.381910000000     0.766790000000     0.0314964  
C426     C      0.977700000000     0.382320000000     0.718810000000     0.0201311  
C427     C      0.504640000000     0.349690000000     0.765980000000     0.0338828  
C428     C      0.976210000000     0.349970000000     0.719140000000     0.0672974  
C429     C      0.508450000000     0.100680000000     0.761520000000     0.0312222  
C430     C      0.977620000000     0.099330000000     0.716590000000     0.0197272  
C431     C      0.509290000000     0.132850000000     0.759960000000     0.0322949  
C432     C      0.976260000000     0.131720000000     0.716290000000     0.0654853  
C433     C      0.493170000000     0.552510000000     0.240340000000     0.404588   
C434     C      0.991590000000     0.929580000000     0.242590000000     0.404078   
C435     C      0.553920000000     0.489950000000     0.240520000000     0.404307   
C436     C      0.931070000000     0.991860000000     0.243050000000     0.403711   
C437     C      0.491400000000     0.738950000000     0.303140000000     0.403335   
C438     C      0.491920000000     0.743830000000     0.180290000000     0.404082   
C439     C      0.492230000000     0.679870000000     0.239120000000     0.407197   
C440     C      0.490790000000     0.802470000000     0.243440000000     0.408772   
C441     C      0.803700000000     0.492400000000     0.243410000000     0.405953   
C442     C      0.681240000000     0.489900000000     0.241420000000     0.406665   
C443     C      0.742860000000     0.491810000000     0.180550000000     0.403587   
C444     C      0.741840000000     0.490640000000     0.303240000000     0.403478   
C445     C      0.740750000000     0.493900000000     0.053230000000     0.405936   
C446     C      0.741870000000     0.991170000000     0.430740000000     0.405248   
C447     C      0.742580000000     0.554690000000     0.990360000000     0.402756   
C448     C      0.739700000000     0.932050000000     0.493840000000     0.403483   
C449     C      0.552400000000     0.741640000000     0.991320000000     0.404165   
C450     C      0.929530000000     0.742800000000     0.492060000000     0.403973   
C451     C      0.491130000000     0.745310000000     0.052990000000     0.406537   
C452     C      0.991340000000     0.739350000000     0.430410000000     0.407271   
C453     C      0.742890000000     0.682100000000     0.989920000000     0.402698   
C454     C      0.738520000000     0.804730000000     0.994440000000     0.402835   
C455     C      0.679500000000     0.741450000000     0.991630000000     0.40366    
C456     C      0.802160000000     0.743970000000     0.992880000000     0.40292    
C457     C      0.881800000000     0.765350000000     0.477290000000     0.0307474  
C458     C      0.882240000000     0.720260000000     0.007920000000     0.0229369  
C459     C      0.849600000000     0.764510000000     0.476530000000     0.0321121  
C460     C      0.849890000000     0.720550000000     0.009220000000     0.0671673  
C461     C      0.600190000000     0.763500000000     0.476080000000     0.0318968  
C462     C      0.599380000000     0.718140000000     0.006370000000     0.0231414  
C463     C      0.632350000000     0.762090000000     0.474860000000     0.0331559  
C464     C      0.631740000000     0.718250000000     0.007710000000     0.069753   
C465     C      0.759770000000     0.884100000000     0.511490000000     0.0309158  
C466     C      0.716140000000     0.885050000000     0.978850000000     0.0190447  
C467     C      0.758020000000     0.851910000000     0.512890000000     0.0323102  
C468     C      0.715690000000     0.852700000000     0.978170000000     0.0673631  
C469     C      0.721360000000     0.602660000000     0.005640000000     0.0334505  
C470     C      0.765250000000     0.601720000000     0.973350000000     0.0193449  
C471     C      0.722510000000     0.634780000000     0.006300000000     0.0349432  
C472     C      0.765030000000     0.634180000000     0.971830000000     0.0652848  
C473     C      0.726170000000     0.512350000000     0.351050000000     0.0311673  
C474     C      0.757500000000     0.967770000000     0.350510000000     0.0193834  
C475     C      0.725290000000     0.511350000000     0.383220000000     0.0317767  
C476     C      0.758590000000     0.967880000000     0.382910000000     0.0651803  
C477     C      0.757120000000     0.514710000000     0.132850000000     0.0306749  
C478     C      0.726660000000     0.969500000000     0.133280000000     0.0191614  
C479     C      0.757410000000     0.514200000000     0.100640000000     0.032151   
C480     C      0.724860000000     0.970140000000     0.100940000000     0.064743   
C481     C      0.968960000000     0.723770000000     0.351010000000     0.0300737  
C482     C      0.515330000000     0.752430000000     0.350330000000     0.0190911  
C483     C      0.970320000000     0.722440000000     0.383270000000     0.0321221  
C484     C      0.515620000000     0.753230000000     0.382640000000     0.0676196  
C485     C      0.014660000000     0.730890000000     0.132200000000     0.033699   
C486     C      0.969220000000     0.760980000000     0.133460000000     0.0201781  
C487     C      0.013380000000     0.730390000000     0.100020000000     0.0361297  
C488     C      0.969260000000     0.762810000000     0.101070000000     0.0655482  
C489     C      0.601880000000     0.503440000000     0.217500000000     0.0312438  
C490     C      0.600920000000     0.974560000000     0.263740000000     0.019761   
C491     C      0.634070000000     0.504650000000     0.219020000000     0.032371   
C492     C      0.633250000000     0.973580000000     0.264140000000     0.0654815  
C493     C      0.883080000000     0.977420000000     0.221190000000     0.0308235  
C494     C      0.884070000000     0.506980000000     0.266970000000     0.0203486  
C495     C      0.850960000000     0.976670000000     0.222300000000     0.0315319  
C496     C      0.851650000000     0.508420000000     0.266910000000     0.0655088  
C497     C      0.503690000000     0.881910000000     0.266790000000     0.0315398  
C498     C      0.977700000000     0.882320000000     0.218820000000     0.0201399  
C499     C      0.504640000000     0.849690000000     0.265980000000     0.0338633  
C500     C      0.976210000000     0.849970000000     0.219140000000     0.0672675  
C501     C      0.508450000000     0.600680000000     0.261520000000     0.0311128  
C502     C      0.977620000000     0.599330000000     0.216590000000     0.0196212  
C503     C      0.509290000000     0.632850000000     0.259960000000     0.0322122  
C504     C      0.976260000000     0.631720000000     0.216290000000     0.0654393  
C505     C      0.493170000000     0.552510000000     0.740340000000     0.404594   
C506     C      0.991590000000     0.929580000000     0.742600000000     0.404075   
C507     C      0.553920000000     0.489950000000     0.740520000000     0.404315   
C508     C      0.931070000000     0.991860000000     0.743050000000     0.403719   
C509     C      0.491400000000     0.738950000000     0.803140000000     0.403331   
C510     C      0.491920000000     0.743830000000     0.680290000000     0.404058   
C511     C      0.492230000000     0.679870000000     0.739120000000     0.407197   
C512     C      0.490790000000     0.802470000000     0.743440000000     0.408776   
C513     C      0.803700000000     0.492400000000     0.743410000000     0.405945   
C514     C      0.681240000000     0.489900000000     0.741420000000     0.40666    
C515     C      0.742860000000     0.491810000000     0.680550000000     0.403557   
C516     C      0.741840000000     0.490640000000     0.803240000000     0.403478   
C517     C      0.740750000000     0.493900000000     0.553230000000     0.406334   
C518     C      0.741870000000     0.991170000000     0.930740000000     0.405096   
C519     C      0.742580000000     0.554690000000     0.490360000000     0.403192   
C520     C      0.739700000000     0.932050000000     0.993840000000     0.403029   
C521     C      0.552400000000     0.741640000000     0.491320000000     0.404593   
C522     C      0.929530000000     0.742800000000     0.992060000000     0.403557   
C523     C      0.491130000000     0.745310000000     0.552990000000     0.406958   
C524     C      0.991340000000     0.739350000000     0.930410000000     0.407126   
C525     C      0.742890000000     0.682100000000     0.489920000000     0.406683   
C526     C      0.738520000000     0.804730000000     0.494440000000     0.406725   
C527     C      0.679500000000     0.741450000000     0.491630000000     0.407631   
C528     C      0.802160000000     0.743970000000     0.492880000000     0.406888   
C529     C      0.881800000000     0.765350000000     0.977290000000     0.0303064  
C530     C      0.882240000000     0.720260000000     0.507920000000     0.0200505  
C531     C      0.849600000000     0.764510000000     0.976530000000     0.0314422  
C532     C      0.849890000000     0.720550000000     0.509220000000     0.0654656  
C533     C      0.600190000000     0.763500000000     0.976080000000     0.0314983  
C534     C      0.599380000000     0.718140000000     0.506370000000     0.0202639  
C535     C      0.632350000000     0.762090000000     0.974860000000     0.032509   
C536     C      0.631740000000     0.718250000000     0.507710000000     0.0679668  
C537     C      0.759770000000     0.884100000000     0.011490000000     0.033626   
C538     C      0.716140000000     0.885050000000     0.478850000000     0.019535   
C539     C      0.758020000000     0.851910000000     0.012890000000     0.0346565  
C540     C      0.715690000000     0.852700000000     0.478170000000     0.0677803  
C541     C      0.721360000000     0.602660000000     0.505640000000     0.0307645  
C542     C      0.765250000000     0.601720000000     0.473350000000     0.0198864  
C543     C      0.722510000000     0.634780000000     0.506300000000     0.0326264  
C544     C      0.765030000000     0.634180000000     0.471830000000     0.0656911  
C545     C      0.726170000000     0.512350000000     0.851050000000     0.0311413  
C546     C      0.757500000000     0.967770000000     0.850510000000     0.01935    
C547     C      0.725290000000     0.511350000000     0.883220000000     0.0317428  
C548     C      0.758590000000     0.967880000000     0.882910000000     0.0652268  
C549     C      0.757120000000     0.514710000000     0.632850000000     0.0305644  
C550     C      0.726660000000     0.969500000000     0.633280000000     0.0189812  
C551     C      0.757410000000     0.514200000000     0.600650000000     0.0320138  
C552     C      0.724860000000     0.970140000000     0.600940000000     0.0649094  
C553     C      0.968960000000     0.723770000000     0.851010000000     0.030042   
C554     C      0.515330000000     0.752430000000     0.850330000000     0.0190529  
C555     C      0.970320000000     0.722440000000     0.883270000000     0.032074   
C556     C      0.515620000000     0.753230000000     0.882640000000     0.0676185  
C557     C      0.014660000000     0.730890000000     0.632200000000     0.0335968  
C558     C      0.969220000000     0.760980000000     0.633460000000     0.0200063  
C559     C      0.013380000000     0.730390000000     0.600020000000     0.0360196  
C560     C      0.969260000000     0.762810000000     0.601070000000     0.0656989  
C561     C      0.601880000000     0.503440000000     0.717510000000     0.0312982  
C562     C      0.600920000000     0.974560000000     0.763740000000     0.0197379  
C563     C      0.634070000000     0.504650000000     0.719020000000     0.0322894  
C564     C      0.633250000000     0.973580000000     0.764140000000     0.0654752  
C565     C      0.883080000000     0.977420000000     0.721190000000     0.030841   
C566     C      0.884070000000     0.506980000000     0.766970000000     0.0203315  
C567     C      0.850960000000     0.976670000000     0.722290000000     0.0314093  
C568     C      0.851650000000     0.508420000000     0.766910000000     0.0655109  
C569     C      0.503690000000     0.881910000000     0.766790000000     0.0314448  
C570     C      0.977700000000     0.882320000000     0.718810000000     0.0200807  
C571     C      0.504640000000     0.849690000000     0.765980000000     0.0338649  
C572     C      0.976210000000     0.849970000000     0.719140000000     0.0672991  
C573     C      0.508450000000     0.600680000000     0.761520000000     0.03109    
C574     C      0.977620000000     0.599330000000     0.716590000000     0.0195706  
C575     C      0.509290000000     0.632850000000     0.759960000000     0.0321925  
C576     C      0.976260000000     0.631720000000     0.716290000000     0.0654696  
Cu1      Cu     0.993460000000     0.491550000000     0.270100000000     0.846293   
Cu2      Cu     0.491540000000     0.990560000000     0.213160000000     0.847937   
Cu3      Cu     0.463040000000     0.240900000000     0.241220000000     0.850144   
Cu4      Cu     0.020050000000     0.241460000000     0.242200000000     0.854617   
Cu5      Cu     0.243100000000     0.462910000000     0.241640000000     0.852537   
Cu6      Cu     0.241820000000     0.019590000000     0.242110000000     0.845798   
Cu7      Cu     0.269610000000     0.992700000000     0.492380000000     0.840607   
Cu8      Cu     0.212970000000     0.494020000000     0.991630000000     0.849089   
Cu9      Cu     0.491200000000     0.270770000000     0.989920000000     0.848918   
Cu10     Cu     0.990750000000     0.213830000000     0.493430000000     0.848098   
Cu11     Cu     0.240510000000     0.241980000000     0.020700000000     0.855728   
Cu12     Cu     0.241130000000     0.244870000000     0.463720000000     0.851014   
Cu13     Cu     0.993460000000     0.491550000000     0.770100000000     0.846265   
Cu14     Cu     0.491540000000     0.990560000000     0.713160000000     0.847677   
Cu15     Cu     0.463040000000     0.240900000000     0.741220000000     0.850145   
Cu16     Cu     0.020050000000     0.241460000000     0.742200000000     0.854599   
Cu17     Cu     0.243100000000     0.462910000000     0.741640000000     0.852525   
Cu18     Cu     0.241820000000     0.019590000000     0.742110000000     0.845789   
Cu19     Cu     0.269610000000     0.992700000000     0.992380000000     0.837781   
Cu20     Cu     0.212970000000     0.494020000000     0.491630000000     0.851926   
Cu21     Cu     0.491200000000     0.270770000000     0.489920000000     0.851635   
Cu22     Cu     0.990750000000     0.213830000000     0.993420000000     0.845122   
Cu23     Cu     0.240510000000     0.241980000000     0.520700000000     0.853748   
Cu24     Cu     0.241130000000     0.244870000000     0.963720000000     0.847533   
Cu25     Cu     0.993460000000     0.991550000000     0.270100000000     0.843615   
Cu26     Cu     0.491540000000     0.490560000000     0.213160000000     0.850773   
Cu27     Cu     0.463040000000     0.740900000000     0.241220000000     0.850128   
Cu28     Cu     0.020050000000     0.741470000000     0.242200000000     0.854596   
Cu29     Cu     0.243100000000     0.962910000000     0.241640000000     0.849036   
Cu30     Cu     0.241820000000     0.519590000000     0.242110000000     0.843714   
Cu31     Cu     0.269610000000     0.492710000000     0.492380000000     0.843377   
Cu32     Cu     0.212970000000     0.994020000000     0.991630000000     0.84627    
Cu33     Cu     0.491200000000     0.770770000000     0.989920000000     0.848838   
Cu34     Cu     0.990750000000     0.713830000000     0.493430000000     0.847842   
Cu35     Cu     0.240510000000     0.741980000000     0.020700000000     0.85558    
Cu36     Cu     0.241130000000     0.744870000000     0.463720000000     0.851162   
Cu37     Cu     0.993460000000     0.991550000000     0.770100000000     0.843583   
Cu38     Cu     0.491540000000     0.490560000000     0.713160000000     0.85052    
Cu39     Cu     0.463040000000     0.740900000000     0.741220000000     0.850129   
Cu40     Cu     0.020050000000     0.741470000000     0.742200000000     0.854578   
Cu41     Cu     0.243100000000     0.962910000000     0.741640000000     0.849016   
Cu42     Cu     0.241820000000     0.519590000000     0.742110000000     0.8437     
Cu43     Cu     0.269610000000     0.492710000000     0.992380000000     0.840546   
Cu44     Cu     0.212970000000     0.994020000000     0.491630000000     0.849103   
Cu45     Cu     0.491200000000     0.770770000000     0.489920000000     0.851557   
Cu46     Cu     0.990750000000     0.713830000000     0.993420000000     0.844858   
Cu47     Cu     0.240510000000     0.741980000000     0.520700000000     0.853594   
Cu48     Cu     0.241130000000     0.744870000000     0.963720000000     0.847673   
Cu49     Cu     0.493460000000     0.491550000000     0.270100000000     0.849267   
Cu50     Cu     0.991540000000     0.990560000000     0.213160000000     0.845278   
Cu51     Cu     0.963050000000     0.240900000000     0.241220000000     0.846624   
Cu52     Cu     0.520050000000     0.241460000000     0.242200000000     0.85268    
Cu53     Cu     0.743100000000     0.462910000000     0.241640000000     0.852542   
Cu54     Cu     0.741820000000     0.019590000000     0.242110000000     0.845657   
Cu55     Cu     0.769610000000     0.992700000000     0.492380000000     0.840543   
Cu56     Cu     0.712970000000     0.494020000000     0.991630000000     0.848821   
Cu57     Cu     0.991200000000     0.270770000000     0.989920000000     0.846089   
Cu58     Cu     0.490750000000     0.213830000000     0.493430000000     0.850931   
Cu59     Cu     0.740510000000     0.241980000000     0.020700000000     0.855731   
Cu60     Cu     0.741130000000     0.244870000000     0.463720000000     0.851009   
Cu61     Cu     0.493460000000     0.491550000000     0.770100000000     0.849241   
Cu62     Cu     0.991540000000     0.990560000000     0.713160000000     0.845013   
Cu63     Cu     0.963050000000     0.240900000000     0.741220000000     0.846619   
Cu64     Cu     0.520050000000     0.241460000000     0.742200000000     0.852657   
Cu65     Cu     0.743100000000     0.462910000000     0.741640000000     0.85253    
Cu66     Cu     0.741820000000     0.019590000000     0.742110000000     0.845647   
Cu67     Cu     0.769610000000     0.992700000000     0.992380000000     0.837715   
Cu68     Cu     0.712970000000     0.494020000000     0.491630000000     0.851664   
Cu69     Cu     0.991200000000     0.270770000000     0.489920000000     0.848801   
Cu70     Cu     0.490750000000     0.213830000000     0.993420000000     0.847949   
Cu71     Cu     0.740510000000     0.241980000000     0.520700000000     0.853746   
Cu72     Cu     0.741130000000     0.244870000000     0.963720000000     0.84752    
Cu73     Cu     0.493460000000     0.991550000000     0.270100000000     0.846583   
Cu74     Cu     0.991540000000     0.490560000000     0.213160000000     0.84811    
Cu75     Cu     0.963050000000     0.740900000000     0.241220000000     0.846601   
Cu76     Cu     0.520050000000     0.741470000000     0.242200000000     0.852653   
Cu77     Cu     0.743100000000     0.962910000000     0.241640000000     0.849034   
Cu78     Cu     0.741820000000     0.519590000000     0.242110000000     0.843567   
Cu79     Cu     0.769610000000     0.492710000000     0.492380000000     0.843315   
Cu80     Cu     0.712970000000     0.994020000000     0.991630000000     0.845995   
Cu81     Cu     0.991200000000     0.770770000000     0.989920000000     0.846006   
Cu82     Cu     0.490750000000     0.713830000000     0.493430000000     0.850681   
Cu83     Cu     0.740510000000     0.741980000000     0.020700000000     0.855583   
Cu84     Cu     0.741130000000     0.744870000000     0.463720000000     0.851157   
Cu85     Cu     0.493460000000     0.991550000000     0.770100000000     0.846554   
Cu86     Cu     0.991540000000     0.490560000000     0.713160000000     0.847851   
Cu87     Cu     0.963050000000     0.740900000000     0.741220000000     0.846596   
Cu88     Cu     0.520050000000     0.741470000000     0.742200000000     0.852631   
Cu89     Cu     0.743100000000     0.962910000000     0.741640000000     0.849014   
Cu90     Cu     0.741820000000     0.519590000000     0.742110000000     0.843552   
Cu91     Cu     0.769610000000     0.492710000000     0.992380000000     0.840482   
Cu92     Cu     0.712970000000     0.994020000000     0.491630000000     0.848834   
Cu93     Cu     0.991200000000     0.770770000000     0.489920000000     0.848721   
Cu94     Cu     0.490750000000     0.713830000000     0.993420000000     0.847692   
Cu95     Cu     0.740510000000     0.741980000000     0.520700000000     0.853592   
Cu96     Cu     0.741130000000     0.744870000000     0.963720000000     0.847661   
H1       H      0.337570000000     0.282330000000     0.463640000000     0.0360887  
H2       H      0.393520000000     0.283420000000     0.464510000000     0.0388001  
H3       H      0.394770000000     0.202220000000     0.020100000000     0.0444745  
H4       H      0.144560000000     0.279640000000     0.461820000000     0.0351417  
H5       H      0.088520000000     0.281780000000     0.463540000000     0.037981   
H6       H      0.086650000000     0.200260000000     0.018580000000     0.0427307  
H7       H      0.275010000000     0.339660000000     0.526660000000     0.0357874  
H8       H      0.277560000000     0.395680000000     0.524780000000     0.0385948  
H9       H      0.199020000000     0.397760000000     0.965590000000     0.0444745  
H10      H      0.205370000000     0.146880000000     0.020000000000     0.0369298  
H11      H      0.203700000000     0.091170000000     0.019180000000     0.0394452  
H12      H      0.282660000000     0.088940000000     0.460550000000     0.0438144  
H13      H      0.212130000000     0.028990000000     0.395210000000     0.0376053  
H14      H      0.213190000000     0.030310000000     0.339380000000     0.0393878  
H15      H      0.270030000000     0.450010000000     0.337950000000     0.044564   
H16      H      0.270100000000     0.032160000000     0.088610000000     0.0367107  
H17      H      0.269970000000     0.032730000000     0.144580000000     0.0388694  
H18      H      0.214700000000     0.451320000000     0.145800000000     0.0443237  
H19      H      0.452120000000     0.210330000000     0.395520000000     0.0350347  
H20      H      0.450170000000     0.212050000000     0.339330000000     0.0385514  
H21      H      0.033680000000     0.264080000000     0.337770000000     0.0437281  
H22      H      0.531040000000     0.217610000000     0.087640000000     0.0353296  
H23      H      0.532950000000     0.218130000000     0.143590000000     0.0386866  
H24      H      0.451210000000     0.272780000000     0.146350000000     0.0439414  
H25      H      0.146360000000     0.017010000000     0.201000000000     0.0365198  
H26      H      0.090320000000     0.015420000000     0.198790000000     0.0391408  
H27      H      0.088170000000     0.462930000000     0.281980000000     0.0436858  
H28      H      0.338810000000     0.464180000000     0.204270000000     0.0365987  
H29      H      0.394570000000     0.465030000000     0.202690000000     0.0384088  
H30      H      0.396830000000     0.018720000000     0.285120000000     0.043896   
H31      H      0.015870000000     0.337510000000     0.284800000000     0.0326407  
H32      H      0.014620000000     0.393700000000     0.285990000000     0.0378597  
H33      H      0.467260000000     0.394860000000     0.199730000000     0.0430501  
H34      H      0.022240000000     0.145240000000     0.277480000000     0.0366543  
H35      H      0.021260000000     0.089300000000     0.279790000000     0.0392901  
H36      H      0.465310000000     0.086430000000     0.198910000000     0.0443625  
H37      H      0.337570000000     0.282330000000     0.963640000000     0.0359319  
H38      H      0.393520000000     0.283420000000     0.964510000000     0.0386019  
H39      H      0.394770000000     0.202220000000     0.520110000000     0.0442395  
H40      H      0.144560000000     0.279640000000     0.961820000000     0.0351266  
H41      H      0.088520000000     0.281780000000     0.963540000000     0.0378374  
H42      H      0.086650000000     0.200260000000     0.518580000000     0.042515   
H43      H      0.275010000000     0.339660000000     0.026660000000     0.0359807  
H44      H      0.277560000000     0.395680000000     0.024780000000     0.0389042  
H45      H      0.199020000000     0.397760000000     0.465590000000     0.0445904  
H46      H      0.205370000000     0.146880000000     0.520000000000     0.0369075  
H47      H      0.203700000000     0.091170000000     0.519180000000     0.0391633  
H48      H      0.282660000000     0.088940000000     0.960550000000     0.0436844  
H49      H      0.212130000000     0.028990000000     0.895210000000     0.0374934  
H50      H      0.213190000000     0.030310000000     0.839380000000     0.0393463  
H51      H      0.270030000000     0.450010000000     0.837940000000     0.0445595  
H52      H      0.270100000000     0.032160000000     0.588610000000     0.0363719  
H53      H      0.269970000000     0.032730000000     0.644580000000     0.0387765  
H54      H      0.214700000000     0.451320000000     0.645800000000     0.0442921  
H55      H      0.452120000000     0.210330000000     0.895520000000     0.0349277  
H56      H      0.450170000000     0.212050000000     0.839330000000     0.038514   
H57      H      0.033680000000     0.264080000000     0.837770000000     0.0437138  
H58      H      0.531040000000     0.217610000000     0.587640000000     0.0350076  
H59      H      0.532950000000     0.218130000000     0.643590000000     0.0386009  
H60      H      0.451210000000     0.272780000000     0.646350000000     0.0439297  
H61      H      0.146360000000     0.017010000000     0.701000000000     0.0364625  
H62      H      0.090320000000     0.015420000000     0.698790000000     0.0390122  
H63      H      0.088170000000     0.462930000000     0.781980000000     0.0436459  
H64      H      0.338810000000     0.464180000000     0.704270000000     0.0365505  
H65      H      0.394570000000     0.465030000000     0.702690000000     0.0382972  
H66      H      0.396830000000     0.018720000000     0.785120000000     0.0438501  
H67      H      0.015870000000     0.337510000000     0.784790000000     0.0326149  
H68      H      0.014620000000     0.393700000000     0.785990000000     0.037833   
H69      H      0.467260000000     0.394860000000     0.699730000000     0.0429661  
H70      H      0.022240000000     0.145240000000     0.777480000000     0.0366175  
H71      H      0.021260000000     0.089300000000     0.779790000000     0.0392368  
H72      H      0.465310000000     0.086430000000     0.698910000000     0.0442741  
H73      H      0.337570000000     0.782330000000     0.463640000000     0.036061   
H74      H      0.393520000000     0.783420000000     0.464510000000     0.0387587  
H75      H      0.394770000000     0.702220000000     0.020100000000     0.044366   
H76      H      0.144560000000     0.779640000000     0.461820000000     0.0351066  
H77      H      0.088520000000     0.781780000000     0.463540000000     0.0379847  
H78      H      0.086650000000     0.700260000000     0.018580000000     0.0426253  
H79      H      0.275010000000     0.839660000000     0.526660000000     0.0357603  
H80      H      0.277560000000     0.895680000000     0.524780000000     0.0385015  
H81      H      0.199020000000     0.897760000000     0.965590000000     0.0443811  
H82      H      0.205370000000     0.646880000000     0.020000000000     0.0368451  
H83      H      0.203700000000     0.591170000000     0.019180000000     0.0391002  
H84      H      0.282660000000     0.588940000000     0.460550000000     0.0434841  
H85      H      0.212130000000     0.528990000000     0.395210000000     0.0373645  
H86      H      0.213190000000     0.530310000000     0.339380000000     0.0392999  
H87      H      0.270030000000     0.950010000000     0.337950000000     0.0445253  
H88      H      0.270100000000     0.532160000000     0.088610000000     0.0364925  
H89      H      0.269970000000     0.532730000000     0.144580000000     0.0387934  
H90      H      0.214700000000     0.951320000000     0.145800000000     0.0442859  
H91      H      0.452120000000     0.710330000000     0.395520000000     0.034956   
H92      H      0.450170000000     0.712040000000     0.339330000000     0.0384825  
H93      H      0.033680000000     0.764080000000     0.337770000000     0.0437101  
H94      H      0.531040000000     0.717610000000     0.087640000000     0.0352621  
H95      H      0.532950000000     0.718130000000     0.143590000000     0.038633   
H96      H      0.451210000000     0.772780000000     0.146350000000     0.0439504  
H97      H      0.146360000000     0.517010000000     0.201000000000     0.0362597  
H98      H      0.090320000000     0.515420000000     0.198790000000     0.0387747  
H99      H      0.088170000000     0.962930000000     0.281980000000     0.0435649  
H100     H      0.338810000000     0.964180000000     0.204270000000     0.0364533  
H101     H      0.394570000000     0.965030000000     0.202690000000     0.0382168  
H102     H      0.396830000000     0.518720000000     0.285120000000     0.04365    
H103     H      0.015870000000     0.837510000000     0.284800000000     0.0326064  
H104     H      0.014620000000     0.893700000000     0.285990000000     0.0377606  
H105     H      0.467260000000     0.894860000000     0.199730000000     0.0429594  
H106     H      0.022240000000     0.645240000000     0.277480000000     0.036539   
H107     H      0.021260000000     0.589300000000     0.279790000000     0.038924   
H108     H      0.465310000000     0.586430000000     0.198910000000     0.0439981  
H109     H      0.337570000000     0.782330000000     0.963640000000     0.0359043  
H110     H      0.393520000000     0.783420000000     0.964510000000     0.0385605  
H111     H      0.394770000000     0.702220000000     0.520110000000     0.0441296  
H112     H      0.144560000000     0.779640000000     0.961820000000     0.0350917  
H113     H      0.088520000000     0.781780000000     0.963540000000     0.0378412  
H114     H      0.086650000000     0.700260000000     0.518580000000     0.0424086  
H115     H      0.275010000000     0.839660000000     0.026660000000     0.035954   
H116     H      0.277560000000     0.895680000000     0.024780000000     0.0388115  
H117     H      0.199020000000     0.897760000000     0.465590000000     0.0444968  
H118     H      0.205370000000     0.646880000000     0.520000000000     0.0368223  
H119     H      0.203700000000     0.591170000000     0.519180000000     0.0388159  
H120     H      0.282660000000     0.588940000000     0.960550000000     0.0433535  
H121     H      0.212130000000     0.528990000000     0.895210000000     0.0372519  
H122     H      0.213190000000     0.530310000000     0.839380000000     0.0392583  
H123     H      0.270030000000     0.950010000000     0.837940000000     0.0445206  
H124     H      0.270100000000     0.532160000000     0.588610000000     0.0361504  
H125     H      0.269970000000     0.532730000000     0.644580000000     0.0386997  
H126     H      0.214700000000     0.951320000000     0.645800000000     0.0442542  
H127     H      0.452120000000     0.710330000000     0.895520000000     0.0348486  
H128     H      0.450170000000     0.712040000000     0.839330000000     0.038445   
H129     H      0.033680000000     0.764080000000     0.837770000000     0.0436958  
H130     H      0.531040000000     0.717610000000     0.587640000000     0.0349391  
H131     H      0.532950000000     0.718130000000     0.643590000000     0.0385469  
H132     H      0.451210000000     0.772780000000     0.646350000000     0.0439387  
H133     H      0.146360000000     0.517010000000     0.701000000000     0.0362007  
H134     H      0.090320000000     0.515420000000     0.698790000000     0.0386441  
H135     H      0.088170000000     0.962930000000     0.781980000000     0.0435251  
H136     H      0.338810000000     0.964180000000     0.704270000000     0.0364048  
H137     H      0.394570000000     0.965030000000     0.702690000000     0.0381047  
H138     H      0.396830000000     0.518720000000     0.785120000000     0.0436037  
H139     H      0.015870000000     0.837510000000     0.784790000000     0.0325806  
H140     H      0.014620000000     0.893700000000     0.785990000000     0.0377339  
H141     H      0.467260000000     0.894860000000     0.699730000000     0.0428752  
H142     H      0.022240000000     0.645240000000     0.777480000000     0.036502   
H143     H      0.021260000000     0.589300000000     0.779790000000     0.0388699  
H144     H      0.465310000000     0.586430000000     0.698910000000     0.0439082  
H145     H      0.837570000000     0.282330000000     0.463640000000     0.0360512  
H146     H      0.893520000000     0.283420000000     0.464510000000     0.0386798  
H147     H      0.894770000000     0.202220000000     0.020100000000     0.044381   
H148     H      0.644560000000     0.279640000000     0.461820000000     0.0350726  
H149     H      0.588520000000     0.281780000000     0.463540000000     0.037704   
H150     H      0.586650000000     0.200260000000     0.018580000000     0.0423911  
H151     H      0.775020000000     0.339660000000     0.526660000000     0.0357435  
H152     H      0.777560000000     0.395680000000     0.524780000000     0.038569   
H153     H      0.699020000000     0.397760000000     0.965590000000     0.0443812  
H154     H      0.705370000000     0.146880000000     0.020000000000     0.0368716  
H155     H      0.703700000000     0.091170000000     0.019180000000     0.0393531  
H156     H      0.782660000000     0.088940000000     0.460550000000     0.0437797  
H157     H      0.712130000000     0.028990000000     0.395210000000     0.0375274  
H158     H      0.713190000000     0.030310000000     0.339380000000     0.0393284  
H159     H      0.770030000000     0.450010000000     0.337950000000     0.0445429  
H160     H      0.770100000000     0.032160000000     0.088610000000     0.0366699  
H161     H      0.769970000000     0.032730000000     0.144580000000     0.038867   
H162     H      0.714700000000     0.451320000000     0.145800000000     0.0442701  
H163     H      0.952120000000     0.210330000000     0.395520000000     0.0349601  
H164     H      0.950170000000     0.212050000000     0.339330000000     0.0384773  
H165     H      0.533680000000     0.264080000000     0.337770000000     0.0438726  
H166     H      0.031050000000     0.217610000000     0.087640000000     0.0355387  
H167     H      0.032950000000     0.218130000000     0.143590000000     0.0387812  
H168     H      0.951210000000     0.272780000000     0.146350000000     0.0440103  
H169     H      0.646360000000     0.017010000000     0.201000000000     0.036402   
H170     H      0.590320000000     0.015420000000     0.198790000000     0.0387535  
H171     H      0.588170000000     0.462930000000     0.281980000000     0.0433779  
H172     H      0.838810000000     0.464180000000     0.204270000000     0.0365729  
H173     H      0.894570000000     0.465030000000     0.202690000000     0.0383477  
H174     H      0.896830000000     0.018720000000     0.285120000000     0.0437781  
H175     H      0.515870000000     0.337510000000     0.284800000000     0.0324266  
H176     H      0.514620000000     0.393700000000     0.285990000000     0.0375141  
H177     H      0.967260000000     0.394860000000     0.199730000000     0.042943   
H178     H      0.522240000000     0.145240000000     0.277480000000     0.0364428  
H179     H      0.521260000000     0.089300000000     0.279790000000     0.0389509  
H180     H      0.965310000000     0.086430000000     0.198910000000     0.0442425  
H181     H      0.837570000000     0.282330000000     0.963640000000     0.0358943  
H182     H      0.893520000000     0.283420000000     0.964510000000     0.0384817  
H183     H      0.894770000000     0.202220000000     0.520110000000     0.0441457  
H184     H      0.644560000000     0.279640000000     0.961820000000     0.0350576  
H185     H      0.588520000000     0.281780000000     0.963540000000     0.03756    
H186     H      0.586650000000     0.200260000000     0.518580000000     0.042173   
H187     H      0.775020000000     0.339660000000     0.026660000000     0.0359371  
H188     H      0.777560000000     0.395680000000     0.024780000000     0.0388788  
H189     H      0.699020000000     0.397760000000     0.465590000000     0.0444973  
H190     H      0.705370000000     0.146880000000     0.520000000000     0.0368487  
H191     H      0.703700000000     0.091170000000     0.519180000000     0.0390698  
H192     H      0.782660000000     0.088940000000     0.960550000000     0.0436498  
H193     H      0.712130000000     0.028990000000     0.895210000000     0.0374151  
H194     H      0.713190000000     0.030310000000     0.839380000000     0.0392868  
H195     H      0.770030000000     0.450010000000     0.837940000000     0.0445384  
H196     H      0.770100000000     0.032160000000     0.588610000000     0.0363304  
H197     H      0.769970000000     0.032730000000     0.644580000000     0.0387739  
H198     H      0.714700000000     0.451320000000     0.645800000000     0.0442382  
H199     H      0.952120000000     0.210330000000     0.895520000000     0.0348531  
H200     H      0.950170000000     0.212050000000     0.839330000000     0.03844    
H201     H      0.533680000000     0.264080000000     0.837770000000     0.0438584  
H202     H      0.031050000000     0.217610000000     0.587640000000     0.0352188  
H203     H      0.032950000000     0.218130000000     0.643590000000     0.0386962  
H204     H      0.951210000000     0.272780000000     0.646350000000     0.0439988  
H205     H      0.646360000000     0.017010000000     0.701000000000     0.0363441  
H206     H      0.590320000000     0.015420000000     0.698790000000     0.0386233  
H207     H      0.588170000000     0.462930000000     0.781980000000     0.0433374  
H208     H      0.838810000000     0.464180000000     0.704270000000     0.0365246  
H209     H      0.894570000000     0.465030000000     0.702690000000     0.0382359  
H210     H      0.896830000000     0.018720000000     0.785120000000     0.0437322  
H211     H      0.515870000000     0.337510000000     0.784790000000     0.0324011  
H212     H      0.514620000000     0.393700000000     0.785990000000     0.0374865  
H213     H      0.967260000000     0.394860000000     0.699730000000     0.042859   
H214     H      0.522240000000     0.145240000000     0.777480000000     0.0364058  
H215     H      0.521260000000     0.089300000000     0.779790000000     0.038897   
H216     H      0.965310000000     0.086430000000     0.698910000000     0.0441537  
H217     H      0.837570000000     0.782330000000     0.463640000000     0.0360235  
H218     H      0.893520000000     0.783420000000     0.464510000000     0.0386384  
H219     H      0.894770000000     0.702220000000     0.020100000000     0.0442723  
H220     H      0.644560000000     0.779640000000     0.461820000000     0.0350374  
H221     H      0.588520000000     0.781780000000     0.463540000000     0.0377072  
H222     H      0.586650000000     0.700260000000     0.018580000000     0.0422843  
H223     H      0.775020000000     0.839660000000     0.526660000000     0.0357164  
H224     H      0.777560000000     0.895680000000     0.524780000000     0.0384758  
H225     H      0.699020000000     0.897760000000     0.965590000000     0.0442875  
H226     H      0.705370000000     0.646880000000     0.020000000000     0.0367865  
H227     H      0.703700000000     0.591170000000     0.019180000000     0.0390068  
H228     H      0.782660000000     0.588940000000     0.460550000000     0.0434487  
H229     H      0.712130000000     0.528990000000     0.395210000000     0.0372854  
H230     H      0.713190000000     0.530310000000     0.339380000000     0.0392397  
H231     H      0.770030000000     0.950010000000     0.337950000000     0.0445043  
H232     H      0.770100000000     0.532160000000     0.088610000000     0.0364515  
H233     H      0.769970000000     0.532730000000     0.144580000000     0.0387911  
H234     H      0.714700000000     0.951320000000     0.145800000000     0.0442321  
H235     H      0.952120000000     0.710330000000     0.395520000000     0.0348811  
H236     H      0.950170000000     0.712040000000     0.339330000000     0.038408   
H237     H      0.533680000000     0.764080000000     0.337770000000     0.0438551  
H238     H      0.031050000000     0.717610000000     0.087640000000     0.0354723  
H239     H      0.032950000000     0.718130000000     0.143590000000     0.0387283  
H240     H      0.951210000000     0.772780000000     0.146350000000     0.0440195  
H241     H      0.646360000000     0.517010000000     0.201000000000     0.0361406  
H242     H      0.590320000000     0.515420000000     0.198790000000     0.0383845  
H243     H      0.588170000000     0.962930000000     0.281980000000     0.0432566  
H244     H      0.838810000000     0.964180000000     0.204270000000     0.0364274  
H245     H      0.894570000000     0.965030000000     0.202690000000     0.0381561  
H246     H      0.896830000000     0.518720000000     0.285120000000     0.0435314  
H247     H      0.515870000000     0.837510000000     0.284800000000     0.0323918  
H248     H      0.514620000000     0.893700000000     0.285990000000     0.0374147  
H249     H      0.967260000000     0.894860000000     0.199730000000     0.0428524  
H250     H      0.522240000000     0.645240000000     0.277480000000     0.0363266  
H251     H      0.521260000000     0.589300000000     0.279790000000     0.0385818  
H252     H      0.965310000000     0.586430000000     0.198910000000     0.0438777  
H253     H      0.837570000000     0.782330000000     0.963640000000     0.0358667  
H254     H      0.893520000000     0.783420000000     0.964510000000     0.0384403  
H255     H      0.894770000000     0.702220000000     0.520110000000     0.0440355  
H256     H      0.644560000000     0.779640000000     0.961820000000     0.0350226  
H257     H      0.588520000000     0.781780000000     0.963540000000     0.0375634  
H258     H      0.586650000000     0.700260000000     0.518580000000     0.0420653  
H259     H      0.775020000000     0.839660000000     0.026660000000     0.0359104  
H260     H      0.777560000000     0.895680000000     0.024780000000     0.0387862  
H261     H      0.699020000000     0.897760000000     0.465590000000     0.0444034  
H262     H      0.705370000000     0.646880000000     0.520000000000     0.0367631  
H263     H      0.703700000000     0.591170000000     0.519180000000     0.038721   
H264     H      0.782660000000     0.588940000000     0.960550000000     0.0433182  
H265     H      0.712130000000     0.528990000000     0.895210000000     0.0371725  
H266     H      0.713190000000     0.530310000000     0.839380000000     0.0391979  
H267     H      0.770030000000     0.950010000000     0.837940000000     0.0444996  
H268     H      0.770100000000     0.532160000000     0.588610000000     0.0361087  
H269     H      0.769970000000     0.532730000000     0.644580000000     0.0386973  
H270     H      0.714700000000     0.951320000000     0.645800000000     0.0442001  
H271     H      0.952120000000     0.710330000000     0.895520000000     0.0347737  
H272     H      0.950170000000     0.712040000000     0.839330000000     0.0383705  
H273     H      0.533680000000     0.764080000000     0.837770000000     0.0438409  
H274     H      0.031050000000     0.717610000000     0.587640000000     0.0351513  
H275     H      0.032950000000     0.718130000000     0.643590000000     0.0386429  
H276     H      0.951210000000     0.772780000000     0.646350000000     0.0440081  
H277     H      0.646360000000     0.517010000000     0.701000000000     0.036081   
H278     H      0.590320000000     0.515420000000     0.698790000000     0.0382523  
H279     H      0.588170000000     0.962930000000     0.781980000000     0.0432162  
H280     H      0.838810000000     0.964180000000     0.704270000000     0.0363788  
H281     H      0.894570000000     0.965030000000     0.702690000000     0.0380438  
H282     H      0.896830000000     0.518720000000     0.785120000000     0.0434851  
H283     H      0.515870000000     0.837510000000     0.784790000000     0.0323663  
H284     H      0.514620000000     0.893700000000     0.785990000000     0.0373872  
H285     H      0.967260000000     0.894860000000     0.699730000000     0.0427681  
H286     H      0.522240000000     0.645240000000     0.777480000000     0.0362893  
H287     H      0.521260000000     0.589300000000     0.779790000000     0.0385272  
H288     H      0.965310000000     0.586430000000     0.698910000000     0.0437875  
N1       N      0.397970000000     0.242900000000     0.492490000000    -0.173764   
N2       N      0.333690000000     0.242810000000     0.493090000000    -0.180037   
N3       N      0.083900000000     0.241180000000     0.991300000000    -0.175306   
N4       N      0.148030000000     0.240240000000     0.991410000000    -0.181293   
N5       N      0.238650000000     0.400500000000     0.494700000000    -0.173321   
N6       N      0.236900000000     0.336250000000     0.495390000000    -0.180193   
N7       N      0.243090000000     0.086250000000     0.989720000000    -0.175161   
N8       N      0.243650000000     0.150540000000     0.988920000000    -0.180889   
N9       N      0.241870000000     0.490310000000     0.334820000000    -0.173491   
N10      N      0.242110000000     0.489840000000     0.399160000000    -0.179544   
N11      N      0.242230000000     0.992050000000     0.149000000000    -0.175018   
N12      N      0.240700000000     0.992600000000     0.084760000000    -0.181431   
N13      N      0.491680000000     0.238440000000     0.334720000000    -0.173438   
N14      N      0.492870000000     0.238030000000     0.398960000000    -0.180651   
N15      N      0.992070000000     0.245380000000     0.148760000000    -0.17446    
N16      N      0.991180000000     0.246670000000     0.084510000000    -0.181375   
N17      N      0.085470000000     0.989110000000     0.240310000000    -0.175078   
N18      N      0.149700000000     0.989230000000     0.241770000000    -0.181012   
N19      N      0.399510000000     0.492120000000     0.243770000000    -0.173768   
N20      N      0.335250000000     0.492780000000     0.244460000000    -0.179712   
N21      N      0.490910000000     0.398040000000     0.242850000000    -0.173667   
N22      N      0.490350000000     0.333900000000     0.242690000000    -0.180803   
N23      N      0.993050000000     0.084070000000     0.239560000000    -0.17531    
N24      N      0.992530000000     0.148330000000     0.238090000000    -0.181246   
N25      N      0.397970000000     0.242900000000     0.992490000000    -0.175431   
N26      N      0.333690000000     0.242810000000     0.993090000000    -0.181018   
N27      N      0.083900000000     0.241180000000     0.491300000000    -0.173659   
N28      N      0.148030000000     0.240240000000     0.491410000000    -0.180306   
N29      N      0.238650000000     0.400500000000     0.994700000000    -0.174933   
N30      N      0.236900000000     0.336250000000     0.995390000000    -0.181282   
N31      N      0.243090000000     0.086250000000     0.489720000000    -0.173558   
N32      N      0.243650000000     0.150540000000     0.488920000000    -0.179773   
N33      N      0.241870000000     0.490310000000     0.834820000000    -0.173491   
N34      N      0.242110000000     0.489840000000     0.899160000000    -0.179546   
N35      N      0.242230000000     0.992050000000     0.649000000000    -0.175017   
N36      N      0.240700000000     0.992600000000     0.584760000000    -0.181677   
N37      N      0.491680000000     0.238440000000     0.834720000000    -0.17344    
N38      N      0.492870000000     0.238030000000     0.898960000000    -0.180655   
N39      N      0.992070000000     0.245380000000     0.648760000000    -0.174459   
N40      N      0.991180000000     0.246670000000     0.584510000000    -0.181634   
N41      N      0.085470000000     0.989110000000     0.740310000000    -0.175126   
N42      N      0.149700000000     0.989230000000     0.741770000000    -0.181015   
N43      N      0.399510000000     0.492120000000     0.743770000000    -0.173789   
N44      N      0.335250000000     0.492780000000     0.744460000000    -0.179692   
N45      N      0.490910000000     0.398040000000     0.742840000000    -0.173653   
N46      N      0.490350000000     0.333900000000     0.742690000000    -0.180818   
N47      N      0.993050000000     0.084070000000     0.739560000000    -0.175324   
N48      N      0.992530000000     0.148330000000     0.738090000000    -0.181261   
N49      N      0.397970000000     0.742900000000     0.492490000000    -0.173752   
N50      N      0.333690000000     0.742810000000     0.493090000000    -0.180042   
N51      N      0.083900000000     0.741170000000     0.991300000000    -0.175291   
N52      N      0.148030000000     0.740240000000     0.991410000000    -0.181318   
N53      N      0.238650000000     0.900500000000     0.494700000000    -0.173309   
N54      N      0.236900000000     0.836250000000     0.495390000000    -0.180201   
N55      N      0.243090000000     0.586250000000     0.989720000000    -0.175381   
N56      N      0.243650000000     0.650540000000     0.988920000000    -0.180912   
N57      N      0.241870000000     0.990310000000     0.334820000000    -0.174543   
N58      N      0.242110000000     0.989840000000     0.399160000000    -0.181177   
N59      N      0.242230000000     0.492050000000     0.149000000000    -0.173967   
N60      N      0.240700000000     0.492600000000     0.084760000000    -0.179828   
N61      N      0.491680000000     0.738440000000     0.334720000000    -0.173449   
N62      N      0.492870000000     0.738030000000     0.398960000000    -0.180671   
N63      N      0.992070000000     0.745380000000     0.148760000000    -0.174447   
N64      N      0.991180000000     0.746670000000     0.084510000000    -0.181401   
N65      N      0.085470000000     0.489110000000     0.240310000000    -0.173487   
N66      N      0.149700000000     0.489230000000     0.241770000000    -0.179932   
N67      N      0.399510000000     0.992120000000     0.243770000000    -0.17542    
N68      N      0.335250000000     0.992780000000     0.244460000000    -0.180694   
N69      N      0.490910000000     0.898030000000     0.242850000000    -0.173574   
N70      N      0.490350000000     0.833900000000     0.242690000000    -0.180815   
N71      N      0.993050000000     0.584070000000     0.239560000000    -0.175526   
N72      N      0.992530000000     0.648320000000     0.238090000000    -0.181201   
N73      N      0.397970000000     0.742900000000     0.992490000000    -0.175424   
N74      N      0.333690000000     0.742810000000     0.993090000000    -0.181026   
N75      N      0.083900000000     0.741170000000     0.491300000000    -0.173639   
N76      N      0.148030000000     0.740240000000     0.491410000000    -0.180329   
N77      N      0.238650000000     0.900500000000     0.994700000000    -0.174922   
N78      N      0.236900000000     0.836250000000     0.995390000000    -0.18129    
N79      N      0.243090000000     0.586250000000     0.489720000000    -0.173771   
N80      N      0.243650000000     0.650540000000     0.488920000000    -0.179792   
N81      N      0.241870000000     0.990310000000     0.834820000000    -0.174545   
N82      N      0.242110000000     0.989840000000     0.899160000000    -0.181179   
N83      N      0.242230000000     0.492050000000     0.649000000000    -0.173963   
N84      N      0.240700000000     0.492600000000     0.584760000000    -0.180068   
N85      N      0.491680000000     0.738440000000     0.834720000000    -0.173451   
N86      N      0.492870000000     0.738030000000     0.898960000000    -0.180675   
N87      N      0.992070000000     0.745380000000     0.648760000000    -0.174446   
N88      N      0.991180000000     0.746670000000     0.584510000000    -0.18166    
N89      N      0.085470000000     0.489110000000     0.740310000000    -0.17353    
N90      N      0.149700000000     0.489230000000     0.741770000000    -0.179932   
N91      N      0.399510000000     0.992120000000     0.743770000000    -0.175445   
N92      N      0.335250000000     0.992780000000     0.744460000000    -0.180676   
N93      N      0.490910000000     0.898030000000     0.742840000000    -0.17356    
N94      N      0.490350000000     0.833900000000     0.742690000000    -0.18083    
N95      N      0.993050000000     0.584070000000     0.739560000000    -0.175541   
N96      N      0.992530000000     0.648320000000     0.738090000000    -0.181217   
N97      N      0.897970000000     0.242900000000     0.492490000000    -0.173816   
N98      N      0.833690000000     0.242810000000     0.493090000000    -0.180039   
N99      N      0.583900000000     0.241180000000     0.991300000000    -0.175518   
N100     N      0.648030000000     0.240240000000     0.991410000000    -0.181322   
N101     N      0.738650000000     0.400500000000     0.494700000000    -0.173329   
N102     N      0.736910000000     0.336250000000     0.495390000000    -0.180214   
N103     N      0.743090000000     0.086250000000     0.989720000000    -0.175131   
N104     N      0.743650000000     0.150540000000     0.988920000000    -0.180905   
N105     N      0.741870000000     0.490310000000     0.334820000000    -0.173494   
N106     N      0.742110000000     0.489840000000     0.399160000000    -0.179563   
N107     N      0.742230000000     0.992050000000     0.149000000000    -0.175004   
N108     N      0.740700000000     0.992600000000     0.084760000000    -0.181464   
N109     N      0.991680000000     0.238440000000     0.334720000000    -0.174553   
N110     N      0.992870000000     0.238030000000     0.398960000000    -0.182161   
N111     N      0.492070000000     0.245380000000     0.148760000000    -0.173427   
N112     N      0.491180000000     0.246670000000     0.084510000000    -0.179767   
N113     N      0.585470000000     0.989110000000     0.240310000000    -0.1753     
N114     N      0.649700000000     0.989230000000     0.241770000000    -0.181041   
N115     N      0.899520000000     0.492120000000     0.243770000000    -0.173827   
N116     N      0.835250000000     0.492780000000     0.244460000000    -0.179729   
N117     N      0.990910000000     0.398040000000     0.242850000000    -0.175258   
N118     N      0.990350000000     0.333900000000     0.242690000000    -0.181886   
N119     N      0.493050000000     0.084070000000     0.239560000000    -0.173709   
N120     N      0.492530000000     0.148330000000     0.238090000000    -0.180161   
N121     N      0.897970000000     0.242900000000     0.992490000000    -0.175484   
N122     N      0.833690000000     0.242810000000     0.993090000000    -0.18102    
N123     N      0.583900000000     0.241180000000     0.491300000000    -0.173864   
N124     N      0.648030000000     0.240240000000     0.491410000000    -0.180331   
N125     N      0.738650000000     0.400500000000     0.994700000000    -0.174943   
N126     N      0.736910000000     0.336250000000     0.995390000000    -0.181306   
N127     N      0.743090000000     0.086250000000     0.489720000000    -0.173524   
N128     N      0.743650000000     0.150540000000     0.488920000000    -0.179787   
N129     N      0.741870000000     0.490310000000     0.834820000000    -0.173494   
N130     N      0.742110000000     0.489840000000     0.899160000000    -0.179564   
N131     N      0.742230000000     0.992050000000     0.649000000000    -0.175002   
N132     N      0.740700000000     0.992600000000     0.584760000000    -0.181711   
N133     N      0.991680000000     0.238440000000     0.834720000000    -0.174556   
N134     N      0.992870000000     0.238030000000     0.898960000000    -0.182166   
N135     N      0.492070000000     0.245380000000     0.648760000000    -0.173422   
N136     N      0.491180000000     0.246670000000     0.584510000000    -0.18002    
N137     N      0.585470000000     0.989110000000     0.740310000000    -0.175348   
N138     N      0.649700000000     0.989230000000     0.741770000000    -0.181044   
N139     N      0.899520000000     0.492120000000     0.743770000000    -0.173848   
N140     N      0.835250000000     0.492780000000     0.744460000000    -0.179709   
N141     N      0.990910000000     0.398040000000     0.742840000000    -0.175245   
N142     N      0.990350000000     0.333900000000     0.742690000000    -0.181904   
N143     N      0.493050000000     0.084070000000     0.739560000000    -0.17372    
N144     N      0.492530000000     0.148330000000     0.738090000000    -0.180175   
N145     N      0.897970000000     0.742900000000     0.492490000000    -0.173804   
N146     N      0.833690000000     0.742810000000     0.493090000000    -0.180044   
N147     N      0.583900000000     0.741170000000     0.991300000000    -0.175504   
N148     N      0.648030000000     0.740240000000     0.991410000000    -0.181347   
N149     N      0.738650000000     0.900500000000     0.494700000000    -0.173317   
N150     N      0.736910000000     0.836250000000     0.495390000000    -0.180222   
N151     N      0.743090000000     0.586250000000     0.989720000000    -0.175351   
N152     N      0.743650000000     0.650540000000     0.988920000000    -0.180929   
N153     N      0.741870000000     0.990310000000     0.334820000000    -0.174549   
N154     N      0.742110000000     0.989840000000     0.399160000000    -0.181199   
N155     N      0.742230000000     0.492050000000     0.149000000000    -0.173951   
N156     N      0.740700000000     0.492600000000     0.084760000000    -0.179857   
N157     N      0.991680000000     0.738440000000     0.334720000000    -0.174565   
N158     N      0.992870000000     0.738030000000     0.398960000000    -0.182185   
N159     N      0.492070000000     0.745380000000     0.148760000000    -0.173412   
N160     N      0.491180000000     0.746670000000     0.084510000000    -0.17979    
N161     N      0.585470000000     0.489110000000     0.240310000000    -0.173702   
N162     N      0.649700000000     0.489230000000     0.241770000000    -0.179957   
N163     N      0.899520000000     0.992120000000     0.243770000000    -0.17548    
N164     N      0.835250000000     0.992780000000     0.244460000000    -0.180711   
N165     N      0.990910000000     0.898030000000     0.242850000000    -0.175167   
N166     N      0.990350000000     0.833900000000     0.242690000000    -0.181899   
N167     N      0.493050000000     0.584070000000     0.239560000000    -0.173919   
N168     N      0.492530000000     0.648320000000     0.238090000000    -0.180112   
N169     N      0.897970000000     0.742900000000     0.992490000000    -0.175476   
N170     N      0.833690000000     0.742810000000     0.993090000000    -0.181028   
N171     N      0.583900000000     0.741170000000     0.491300000000    -0.173845   
N172     N      0.648030000000     0.740240000000     0.491410000000    -0.180354   
N173     N      0.738650000000     0.900500000000     0.994700000000    -0.174933   
N174     N      0.736910000000     0.836250000000     0.995390000000    -0.181314   
N175     N      0.743090000000     0.586250000000     0.489720000000    -0.173737   
N176     N      0.743650000000     0.650540000000     0.488920000000    -0.179807   
N177     N      0.741870000000     0.990310000000     0.834820000000    -0.17455    
N178     N      0.742110000000     0.989840000000     0.899160000000    -0.181201   
N179     N      0.742230000000     0.492050000000     0.649000000000    -0.173946   
N180     N      0.740700000000     0.492600000000     0.584760000000    -0.180098   
N181     N      0.991680000000     0.738440000000     0.834720000000    -0.174569   
N182     N      0.992870000000     0.738030000000     0.898960000000    -0.182189   
N183     N      0.492070000000     0.745380000000     0.648760000000    -0.173407   
N184     N      0.491180000000     0.746670000000     0.584510000000    -0.180043   
N185     N      0.585470000000     0.489110000000     0.740310000000    -0.173745   
N186     N      0.649700000000     0.489230000000     0.741770000000    -0.179957   
N187     N      0.899520000000     0.992120000000     0.743770000000    -0.175504   
N188     N      0.835250000000     0.992780000000     0.744460000000    -0.180693   
N189     N      0.990910000000     0.898030000000     0.742840000000    -0.175154   
N190     N      0.990350000000     0.833900000000     0.742690000000    -0.181917   
N191     N      0.493050000000     0.584070000000     0.739560000000    -0.173931   
N192     N      0.492530000000     0.648320000000     0.738090000000    -0.180125   
O1       O      0.996500000000     0.038340000000     0.266200000000    -0.391207   
O2       O      0.991490000000     0.444600000000     0.268190000000    -0.393153   
O3       O      0.039700000000     0.488270000000     0.266420000000    -0.394877   
O4       O      0.446510000000     0.994650000000     0.268250000000    -0.393807   
O5       O      0.445020000000     0.988740000000     0.217090000000    -0.395104   
O6       O      0.038760000000     0.492400000000     0.215070000000    -0.388337   
O7       O      0.492220000000     0.443910000000     0.216650000000    -0.395135   
O8       O      0.489690000000     0.037280000000     0.215150000000    -0.393126   
O9       O      0.465770000000     0.236660000000     0.288270000000    -0.390449   
O10      O      0.466140000000     0.245360000000     0.194790000000    -0.393194   
O11      O      0.466470000000     0.194350000000     0.236940000000    -0.392124   
O12      O      0.465190000000     0.287590000000     0.244120000000    -0.392308   
O13      O      0.016790000000     0.288300000000     0.242490000000    -0.39005    
O14      O      0.017650000000     0.194590000000     0.243020000000    -0.391126   
O15      O      0.017450000000     0.240730000000     0.195130000000    -0.389478   
O16      O      0.016980000000     0.242190000000     0.288600000000    -0.394843   
O17      O      0.289650000000     0.466860000000     0.238020000000    -0.393811   
O18      O      0.196480000000     0.464810000000     0.245440000000    -0.392047   
O19      O      0.239160000000     0.466230000000     0.195090000000    -0.394618   
O20      O      0.246810000000     0.465510000000     0.288280000000    -0.393552   
O21      O      0.237030000000     0.016080000000     0.288720000000    -0.388633   
O22      O      0.246710000000     0.017170000000     0.195460000000    -0.389423   
O23      O      0.195280000000     0.015650000000     0.237090000000    -0.389008   
O24      O      0.288450000000     0.017550000000     0.247230000000    -0.386829   
O25      O      0.266320000000     0.998150000000     0.038860000000    -0.391152   
O26      O      0.267030000000     0.987110000000     0.445880000000    -0.390685   
O27      O      0.267720000000     0.039370000000     0.486700000000    -0.38914    
O28      O      0.265460000000     0.446170000000     0.998040000000    -0.391569   
O29      O      0.214860000000     0.447350000000     0.988580000000    -0.394458   
O30      O      0.216910000000     0.040580000000     0.494860000000    -0.392403   
O31      O      0.216510000000     0.497030000000     0.444940000000    -0.393299   
O32      O      0.215380000000     0.490510000000     0.038300000000    -0.389577   
O33      O      0.038050000000     0.267620000000     0.990960000000    -0.390349   
O34      O      0.444350000000     0.268160000000     0.987880000000    -0.393422   
O35      O      0.488920000000     0.270230000000     0.037010000000    -0.387957   
O36      O      0.993540000000     0.265670000000     0.443740000000    -0.395708   
O37      O      0.988160000000     0.214420000000     0.446220000000    -0.391399   
O38      O      0.493580000000     0.218930000000     0.039770000000    -0.392532   
O39      O      0.444130000000     0.217280000000     0.495950000000    -0.395268   
O40      O      0.037460000000     0.216040000000     0.491880000000    -0.392431   
O41      O      0.239310000000     0.195550000000     0.016050000000    -0.391902   
O42      O      0.241700000000     0.289220000000     0.019570000000    -0.388597   
O43      O      0.193830000000     0.242050000000     0.017560000000    -0.389635   
O44      O      0.287210000000     0.240590000000     0.018230000000    -0.390495   
O45      O      0.287850000000     0.248200000000     0.467250000000    -0.392531   
O46      O      0.194270000000     0.242320000000     0.465940000000    -0.391971   
O47      O      0.237280000000     0.291070000000     0.468230000000    -0.394173   
O48      O      0.244910000000     0.197880000000     0.464850000000    -0.389936   
O49      O      0.996500000000     0.038340000000     0.766200000000    -0.391244   
O50      O      0.991490000000     0.444600000000     0.768190000000    -0.393285   
O51      O      0.039700000000     0.488270000000     0.766420000000    -0.39491    
O52      O      0.446510000000     0.994650000000     0.768250000000    -0.393844   
O53      O      0.445020000000     0.988740000000     0.717090000000    -0.395166   
O54      O      0.038760000000     0.492400000000     0.715070000000    -0.388407   
O55      O      0.492220000000     0.443910000000     0.716650000000    -0.395096   
O56      O      0.489690000000     0.037280000000     0.715150000000    -0.393182   
O57      O      0.465770000000     0.236660000000     0.788270000000    -0.390454   
O58      O      0.466140000000     0.245360000000     0.694790000000    -0.393207   
O59      O      0.466470000000     0.194350000000     0.736940000000    -0.392129   
O60      O      0.465190000000     0.287590000000     0.744120000000    -0.392311   
O61      O      0.016790000000     0.288300000000     0.742490000000    -0.390065   
O62      O      0.017650000000     0.194590000000     0.743020000000    -0.391138   
O63      O      0.017450000000     0.240730000000     0.695130000000    -0.389505   
O64      O      0.016980000000     0.242190000000     0.788600000000    -0.394845   
O65      O      0.289650000000     0.466860000000     0.738020000000    -0.393824   
O66      O      0.196480000000     0.464810000000     0.745440000000    -0.392056   
O67      O      0.239160000000     0.466230000000     0.695090000000    -0.394648   
O68      O      0.246810000000     0.465510000000     0.788280000000    -0.393553   
O69      O      0.237030000000     0.016080000000     0.788720000000    -0.388633   
O70      O      0.246710000000     0.017170000000     0.695460000000    -0.389445   
O71      O      0.195280000000     0.015650000000     0.737090000000    -0.389018   
O72      O      0.288450000000     0.017550000000     0.747230000000    -0.386832   
O73      O      0.266320000000     0.998150000000     0.538860000000    -0.393474   
O74      O      0.267030000000     0.987110000000     0.945880000000    -0.390353   
O75      O      0.267720000000     0.039370000000     0.986700000000    -0.389403   
O76      O      0.265460000000     0.446170000000     0.498040000000    -0.390746   
O77      O      0.214860000000     0.447350000000     0.488580000000    -0.394203   
O78      O      0.216910000000     0.040580000000     0.994860000000    -0.39323    
O79      O      0.216510000000     0.497030000000     0.944940000000    -0.392981   
O80      O      0.215380000000     0.490510000000     0.538300000000    -0.391861   
O81      O      0.038050000000     0.267620000000     0.490960000000    -0.389999   
O82      O      0.444350000000     0.268160000000     0.487880000000    -0.393108   
O83      O      0.488920000000     0.270230000000     0.537010000000    -0.390292   
O84      O      0.993540000000     0.265670000000     0.943740000000    -0.39535    
O85      O      0.988160000000     0.214420000000     0.946220000000    -0.391201   
O86      O      0.493580000000     0.218930000000     0.539770000000    -0.394882   
O87      O      0.444130000000     0.217280000000     0.995940000000    -0.396093   
O88      O      0.037460000000     0.216040000000     0.991880000000    -0.393151   
O89      O      0.239310000000     0.195550000000     0.516050000000    -0.394629   
O90      O      0.241700000000     0.289220000000     0.519570000000    -0.391506   
O91      O      0.193830000000     0.242050000000     0.517560000000    -0.39248    
O92      O      0.287210000000     0.240590000000     0.518230000000    -0.393286   
O93      O      0.287850000000     0.248200000000     0.967250000000    -0.391705   
O94      O      0.194270000000     0.242320000000     0.965940000000    -0.39116    
O95      O      0.237280000000     0.291070000000     0.968230000000    -0.393273   
O96      O      0.244910000000     0.197880000000     0.964850000000    -0.389136   
O97      O      0.996500000000     0.538340000000     0.266200000000    -0.393486   
O98      O      0.991490000000     0.944610000000     0.268190000000    -0.392834   
O99      O      0.039700000000     0.988270000000     0.266420000000    -0.395162   
O100     O      0.446510000000     0.494650000000     0.268250000000    -0.393006   
O101     O      0.445020000000     0.488740000000     0.217090000000    -0.394821   
O102     O      0.038760000000     0.992400000000     0.215070000000    -0.389091   
O103     O      0.492220000000     0.943910000000     0.216650000000    -0.394742   
O104     O      0.489690000000     0.537280000000     0.215150000000    -0.395441   
O105     O      0.465770000000     0.736660000000     0.288270000000    -0.390467   
O106     O      0.466140000000     0.745360000000     0.194790000000    -0.393196   
O107     O      0.466470000000     0.694350000000     0.236940000000    -0.392106   
O108     O      0.465190000000     0.787590000000     0.244120000000    -0.392326   
O109     O      0.016790000000     0.788300000000     0.242490000000    -0.390143   
O110     O      0.017650000000     0.694590000000     0.243020000000    -0.391039   
O111     O      0.017450000000     0.740730000000     0.195130000000    -0.389485   
O112     O      0.016980000000     0.742190000000     0.288600000000    -0.394856   
O113     O      0.289650000000     0.966860000000     0.238020000000    -0.392999   
O114     O      0.196480000000     0.964810000000     0.245440000000    -0.391182   
O115     O      0.239160000000     0.966230000000     0.195090000000    -0.393803   
O116     O      0.246810000000     0.965510000000     0.288280000000    -0.392725   
O117     O      0.237030000000     0.516080000000     0.288720000000    -0.391448   
O118     O      0.246710000000     0.517170000000     0.195460000000    -0.392247   
O119     O      0.195280000000     0.515650000000     0.237090000000    -0.391864   
O120     O      0.288450000000     0.517550000000     0.247230000000    -0.389605   
O121     O      0.266320000000     0.498150000000     0.038860000000    -0.390398   
O122     O      0.267030000000     0.487110000000     0.445880000000    -0.390385   
O123     O      0.267720000000     0.539370000000     0.486700000000    -0.391514   
O124     O      0.265460000000     0.946170000000     0.998040000000    -0.391326   
O125     O      0.214860000000     0.947350000000     0.988580000000    -0.39413    
O126     O      0.216910000000     0.540580000000     0.494860000000    -0.394708   
O127     O      0.216510000000     0.997030000000     0.444940000000    -0.394068   
O128     O      0.215380000000     0.990510000000     0.038300000000    -0.389875   
O129     O      0.038050000000     0.767620000000     0.990960000000    -0.390371   
O130     O      0.444350000000     0.768170000000     0.987880000000    -0.3933     
O131     O      0.488920000000     0.770230000000     0.037010000000    -0.387982   
O132     O      0.993540000000     0.765670000000     0.443740000000    -0.395734   
O133     O      0.988160000000     0.714420000000     0.446220000000    -0.391484   
O134     O      0.493580000000     0.718930000000     0.039770000000    -0.39259    
O135     O      0.444130000000     0.717280000000     0.495950000000    -0.395277   
O136     O      0.037460000000     0.716040000000     0.491880000000    -0.392487   
O137     O      0.239310000000     0.695550000000     0.016050000000    -0.391903   
O138     O      0.241700000000     0.789230000000     0.019570000000    -0.388547   
O139     O      0.193830000000     0.742050000000     0.017560000000    -0.38962    
O140     O      0.287210000000     0.740590000000     0.018230000000    -0.390481   
O141     O      0.287850000000     0.748200000000     0.467250000000    -0.392553   
O142     O      0.194270000000     0.742320000000     0.465940000000    -0.392002   
O143     O      0.237280000000     0.791060000000     0.468230000000    -0.394242   
O144     O      0.244910000000     0.697880000000     0.464850000000    -0.389978   
O145     O      0.996500000000     0.538340000000     0.766200000000    -0.393527   
O146     O      0.991490000000     0.944610000000     0.768190000000    -0.392965   
O147     O      0.039700000000     0.988270000000     0.766420000000    -0.395195   
O148     O      0.446510000000     0.494650000000     0.768250000000    -0.393043   
O149     O      0.445020000000     0.488740000000     0.717090000000    -0.394882   
O150     O      0.038760000000     0.992400000000     0.715070000000    -0.389162   
O151     O      0.492220000000     0.943910000000     0.716650000000    -0.394703   
O152     O      0.489690000000     0.537280000000     0.715150000000    -0.395504   
O153     O      0.465770000000     0.736660000000     0.788270000000    -0.390472   
O154     O      0.466140000000     0.745360000000     0.694790000000    -0.393209   
O155     O      0.466470000000     0.694350000000     0.736940000000    -0.392111   
O156     O      0.465190000000     0.787590000000     0.744120000000    -0.392329   
O157     O      0.016790000000     0.788300000000     0.742490000000    -0.390158   
O158     O      0.017650000000     0.694590000000     0.743020000000    -0.391051   
O159     O      0.017450000000     0.740730000000     0.695130000000    -0.389512   
O160     O      0.016980000000     0.742190000000     0.788600000000    -0.394858   
O161     O      0.289650000000     0.966860000000     0.738020000000    -0.393011   
O162     O      0.196480000000     0.964810000000     0.745440000000    -0.391189   
O163     O      0.239160000000     0.966230000000     0.695090000000    -0.393832   
O164     O      0.246810000000     0.965510000000     0.788280000000    -0.392724   
O165     O      0.237030000000     0.516080000000     0.788720000000    -0.391453   
O166     O      0.246710000000     0.517170000000     0.695460000000    -0.392277   
O167     O      0.195280000000     0.515650000000     0.737090000000    -0.39188    
O168     O      0.288450000000     0.517550000000     0.747230000000    -0.389615   
O169     O      0.266320000000     0.498150000000     0.538860000000    -0.392718   
O170     O      0.267030000000     0.487110000000     0.945880000000    -0.390053   
O171     O      0.267720000000     0.539370000000     0.986700000000    -0.391777   
O172     O      0.265460000000     0.946170000000     0.498040000000    -0.390503   
O173     O      0.214860000000     0.947350000000     0.488580000000    -0.393875   
O174     O      0.216910000000     0.540580000000     0.994860000000    -0.395538   
O175     O      0.216510000000     0.997030000000     0.944940000000    -0.393751   
O176     O      0.215380000000     0.990510000000     0.538300000000    -0.39216    
O177     O      0.038050000000     0.767620000000     0.490960000000    -0.390021   
O178     O      0.444350000000     0.768170000000     0.487880000000    -0.392986   
O179     O      0.488920000000     0.770230000000     0.537010000000    -0.390322   
O180     O      0.993540000000     0.765670000000     0.943740000000    -0.395376   
O181     O      0.988160000000     0.714420000000     0.946220000000    -0.391285   
O182     O      0.493580000000     0.718930000000     0.539770000000    -0.394945   
O183     O      0.444130000000     0.717280000000     0.995940000000    -0.396105   
O184     O      0.037460000000     0.716040000000     0.991880000000    -0.393209   
O185     O      0.239310000000     0.695550000000     0.516050000000    -0.394638   
O186     O      0.241700000000     0.789230000000     0.519570000000    -0.391462   
O187     O      0.193830000000     0.742050000000     0.517560000000    -0.392472   
O188     O      0.287210000000     0.740590000000     0.518230000000    -0.393278   
O189     O      0.287850000000     0.748200000000     0.967250000000    -0.391725   
O190     O      0.194270000000     0.742320000000     0.965940000000    -0.39119    
O191     O      0.237280000000     0.791060000000     0.968230000000    -0.393341   
O192     O      0.244910000000     0.697880000000     0.964850000000    -0.389175   
O193     O      0.496500000000     0.038340000000     0.266200000000    -0.390428   
O194     O      0.491490000000     0.444600000000     0.268190000000    -0.392444   
O195     O      0.539700000000     0.488270000000     0.266420000000    -0.397167   
O196     O      0.946510000000     0.994650000000     0.268250000000    -0.393535   
O197     O      0.945020000000     0.988740000000     0.217090000000    -0.394773   
O198     O      0.538760000000     0.492400000000     0.215070000000    -0.390679   
O199     O      0.992220000000     0.443910000000     0.216650000000    -0.39548    
O200     O      0.989690000000     0.037280000000     0.215150000000    -0.393401   
O201     O      0.965770000000     0.236660000000     0.288270000000    -0.389673   
O202     O      0.966140000000     0.245360000000     0.194790000000    -0.392255   
O203     O      0.966470000000     0.194350000000     0.236940000000    -0.391246   
O204     O      0.965190000000     0.287590000000     0.244120000000    -0.391457   
O205     O      0.516790000000     0.288300000000     0.242490000000    -0.392976   
O206     O      0.517650000000     0.194590000000     0.243020000000    -0.394      
O207     O      0.517450000000     0.240730000000     0.195130000000    -0.392415   
O208     O      0.516980000000     0.242190000000     0.288600000000    -0.397612   
O209     O      0.789650000000     0.466860000000     0.238020000000    -0.393849   
O210     O      0.696480000000     0.464810000000     0.245440000000    -0.392075   
O211     O      0.739160000000     0.466230000000     0.195090000000    -0.394635   
O212     O      0.746810000000     0.465510000000     0.288280000000    -0.393563   
O213     O      0.737030000000     0.016080000000     0.288720000000    -0.388632   
O214     O      0.746710000000     0.017170000000     0.195460000000    -0.389419   
O215     O      0.695280000000     0.015650000000     0.237090000000    -0.389026   
O216     O      0.788460000000     0.017550000000     0.247230000000    -0.386798   
O217     O      0.766320000000     0.998150000000     0.038860000000    -0.391178   
O218     O      0.767030000000     0.987110000000     0.445880000000    -0.390715   
O219     O      0.767720000000     0.039370000000     0.486700000000    -0.389112   
O220     O      0.765460000000     0.446170000000     0.998040000000    -0.391593   
O221     O      0.714860000000     0.447350000000     0.988580000000    -0.394519   
O222     O      0.716900000000     0.040580000000     0.494860000000    -0.392314   
O223     O      0.716510000000     0.497030000000     0.444940000000    -0.393364   
O224     O      0.715380000000     0.490510000000     0.038300000000    -0.389641   
O225     O      0.538050000000     0.267620000000     0.990960000000    -0.392639   
O226     O      0.944350000000     0.268160000000     0.987880000000    -0.393006   
O227     O      0.988920000000     0.270230000000     0.037010000000    -0.38827    
O228     O      0.493540000000     0.265670000000     0.443740000000    -0.394961   
O229     O      0.488160000000     0.214420000000     0.446220000000    -0.39106    
O230     O      0.993580000000     0.218930000000     0.039770000000    -0.393218   
O231     O      0.944130000000     0.217280000000     0.495950000000    -0.394843   
O232     O      0.537460000000     0.216040000000     0.491880000000    -0.394744   
O233     O      0.739320000000     0.195550000000     0.016050000000    -0.391923   
O234     O      0.741700000000     0.289220000000     0.019570000000    -0.388616   
O235     O      0.693830000000     0.242050000000     0.017560000000    -0.389673   
O236     O      0.787210000000     0.240590000000     0.018230000000    -0.390476   
O237     O      0.787850000000     0.248200000000     0.467250000000    -0.392534   
O238     O      0.694270000000     0.242320000000     0.465940000000    -0.392003   
O239     O      0.737280000000     0.291070000000     0.468230000000    -0.394176   
O240     O      0.744910000000     0.197880000000     0.464850000000    -0.389959   
O241     O      0.496500000000     0.038340000000     0.766200000000    -0.390464   
O242     O      0.491490000000     0.444600000000     0.768190000000    -0.392576   
O243     O      0.539700000000     0.488270000000     0.766420000000    -0.397203   
O244     O      0.946510000000     0.994650000000     0.768250000000    -0.393572   
O245     O      0.945020000000     0.988740000000     0.717090000000    -0.394834   
O246     O      0.538760000000     0.492400000000     0.715070000000    -0.390755   
O247     O      0.992220000000     0.443910000000     0.716650000000    -0.395442   
O248     O      0.989690000000     0.037280000000     0.715150000000    -0.393458   
O249     O      0.965770000000     0.236660000000     0.788270000000    -0.389677   
O250     O      0.966140000000     0.245360000000     0.694790000000    -0.392266   
O251     O      0.966470000000     0.194350000000     0.736940000000    -0.39125    
O252     O      0.965190000000     0.287590000000     0.744120000000    -0.391458   
O253     O      0.516790000000     0.288300000000     0.742490000000    -0.392997   
O254     O      0.517650000000     0.194590000000     0.743020000000    -0.394018   
O255     O      0.517450000000     0.240730000000     0.695130000000    -0.392451   
O256     O      0.516980000000     0.242190000000     0.788600000000    -0.397618   
O257     O      0.789650000000     0.466860000000     0.738020000000    -0.393862   
O258     O      0.696480000000     0.464810000000     0.745440000000    -0.392085   
O259     O      0.739160000000     0.466230000000     0.695090000000    -0.394666   
O260     O      0.746810000000     0.465510000000     0.788280000000    -0.393564   
O261     O      0.737030000000     0.016080000000     0.788720000000    -0.388632   
O262     O      0.746710000000     0.017170000000     0.695460000000    -0.389441   
O263     O      0.695280000000     0.015650000000     0.737090000000    -0.389035   
O264     O      0.788460000000     0.017550000000     0.747230000000    -0.386802   
O265     O      0.766320000000     0.998150000000     0.538860000000    -0.393504   
O266     O      0.767030000000     0.987110000000     0.945880000000    -0.390382   
O267     O      0.767720000000     0.039370000000     0.986700000000    -0.389375   
O268     O      0.765460000000     0.446170000000     0.498040000000    -0.390768   
O269     O      0.714860000000     0.447350000000     0.488580000000    -0.394263   
O270     O      0.716900000000     0.040580000000     0.994860000000    -0.393143   
O271     O      0.716510000000     0.497030000000     0.944940000000    -0.393046   
O272     O      0.715380000000     0.490510000000     0.538300000000    -0.391931   
O273     O      0.538050000000     0.267620000000     0.490960000000    -0.392289   
O274     O      0.944350000000     0.268160000000     0.487880000000    -0.392692   
O275     O      0.988920000000     0.270230000000     0.537010000000    -0.390606   
O276     O      0.493540000000     0.265670000000     0.943740000000    -0.394603   
O277     O      0.488160000000     0.214420000000     0.946220000000    -0.390862   
O278     O      0.993580000000     0.218930000000     0.539770000000    -0.395569   
O279     O      0.944130000000     0.217280000000     0.995940000000    -0.395669   
O280     O      0.537460000000     0.216040000000     0.991880000000    -0.395467   
O281     O      0.739320000000     0.195550000000     0.516050000000    -0.394656   
O282     O      0.741700000000     0.289220000000     0.519570000000    -0.391532   
O283     O      0.693830000000     0.242050000000     0.517560000000    -0.392527   
O284     O      0.787210000000     0.240590000000     0.518230000000    -0.393272   
O285     O      0.787850000000     0.248200000000     0.967250000000    -0.391707   
O286     O      0.694270000000     0.242320000000     0.965940000000    -0.39119    
O287     O      0.737280000000     0.291070000000     0.968230000000    -0.393275   
O288     O      0.744910000000     0.197880000000     0.964850000000    -0.389157   
O289     O      0.496500000000     0.538340000000     0.266200000000    -0.392705   
O290     O      0.491490000000     0.944610000000     0.268190000000    -0.392126   
O291     O      0.539700000000     0.988270000000     0.266420000000    -0.397452   
O292     O      0.946510000000     0.494650000000     0.268250000000    -0.392734   
O293     O      0.945020000000     0.488740000000     0.217090000000    -0.394489   
O294     O      0.538760000000     0.992400000000     0.215070000000    -0.391435   
O295     O      0.992220000000     0.943910000000     0.216650000000    -0.395087   
O296     O      0.989690000000     0.537280000000     0.215150000000    -0.395716   
O297     O      0.965770000000     0.736660000000     0.288270000000    -0.389689   
O298     O      0.966140000000     0.745360000000     0.194790000000    -0.392256   
O299     O      0.966470000000     0.694350000000     0.236940000000    -0.391226   
O300     O      0.965190000000     0.787590000000     0.244120000000    -0.391474   
O301     O      0.516790000000     0.788300000000     0.242490000000    -0.393073   
O302     O      0.517650000000     0.694590000000     0.243020000000    -0.393922   
O303     O      0.517450000000     0.740730000000     0.195130000000    -0.392428   
O304     O      0.516980000000     0.742190000000     0.288600000000    -0.397631   
O305     O      0.789650000000     0.966860000000     0.238020000000    -0.393035   
O306     O      0.696480000000     0.964810000000     0.245440000000    -0.391208   
O307     O      0.739160000000     0.966230000000     0.195090000000    -0.393819   
O308     O      0.746810000000     0.965510000000     0.288280000000    -0.392734   
O309     O      0.737030000000     0.516080000000     0.288720000000    -0.391453   
O310     O      0.746710000000     0.517170000000     0.195460000000    -0.392249   
O311     O      0.695280000000     0.515650000000     0.237090000000    -0.39189    
O312     O      0.788460000000     0.517550000000     0.247230000000    -0.38958    
O313     O      0.766320000000     0.498150000000     0.038860000000    -0.390424   
O314     O      0.767030000000     0.487110000000     0.445880000000    -0.390415   
O315     O      0.767720000000     0.539370000000     0.486700000000    -0.391489   
O316     O      0.765460000000     0.946170000000     0.998040000000    -0.391348   
O317     O      0.714860000000     0.947350000000     0.988580000000    -0.39419    
O318     O      0.716900000000     0.540580000000     0.494860000000    -0.394624   
O319     O      0.716510000000     0.997030000000     0.444940000000    -0.394136   
O320     O      0.715380000000     0.990510000000     0.038300000000    -0.38994    
O321     O      0.538050000000     0.767620000000     0.990960000000    -0.392665   
O322     O      0.944350000000     0.768170000000     0.987880000000    -0.392885   
O323     O      0.988920000000     0.770230000000     0.037010000000    -0.388296   
O324     O      0.493540000000     0.765670000000     0.443740000000    -0.394987   
O325     O      0.488160000000     0.714420000000     0.446220000000    -0.391144   
O326     O      0.993580000000     0.718930000000     0.039770000000    -0.393277   
O327     O      0.944130000000     0.717280000000     0.495950000000    -0.394853   
O328     O      0.537460000000     0.716040000000     0.491880000000    -0.394806   
O329     O      0.739320000000     0.695550000000     0.016050000000    -0.391924   
O330     O      0.741700000000     0.789230000000     0.019570000000    -0.388566   
O331     O      0.693830000000     0.742050000000     0.017560000000    -0.389659   
O332     O      0.787210000000     0.740590000000     0.018230000000    -0.390463   
O333     O      0.787850000000     0.748200000000     0.467250000000    -0.392556   
O334     O      0.694270000000     0.742320000000     0.465940000000    -0.392034   
O335     O      0.737280000000     0.791060000000     0.468230000000    -0.394245   
O336     O      0.744910000000     0.697880000000     0.464850000000    -0.39       
O337     O      0.496500000000     0.538340000000     0.766200000000    -0.392745   
O338     O      0.491490000000     0.944610000000     0.768190000000    -0.392256   
O339     O      0.539700000000     0.988270000000     0.766420000000    -0.397488   
O340     O      0.946510000000     0.494650000000     0.768250000000    -0.39277    
O341     O      0.945020000000     0.488740000000     0.717090000000    -0.39455    
O342     O      0.538760000000     0.992400000000     0.715070000000    -0.391513   
O343     O      0.992220000000     0.943910000000     0.716650000000    -0.395048   
O344     O      0.989690000000     0.537280000000     0.715150000000    -0.39578    
O345     O      0.965770000000     0.736660000000     0.788270000000    -0.389694   
O346     O      0.966140000000     0.745360000000     0.694790000000    -0.392267   
O347     O      0.966470000000     0.694350000000     0.736940000000    -0.391229   
O348     O      0.965190000000     0.787590000000     0.744120000000    -0.391475   
O349     O      0.516790000000     0.788300000000     0.742490000000    -0.393095   
O350     O      0.517650000000     0.694590000000     0.743020000000    -0.39394    
O351     O      0.517450000000     0.740730000000     0.695130000000    -0.392463   
O352     O      0.516980000000     0.742190000000     0.788600000000    -0.397637   
O353     O      0.789650000000     0.966860000000     0.738020000000    -0.393047   
O354     O      0.696480000000     0.964810000000     0.745440000000    -0.391216   
O355     O      0.739160000000     0.966230000000     0.695090000000    -0.393848   
O356     O      0.746810000000     0.965510000000     0.788280000000    -0.392733   
O357     O      0.737030000000     0.516080000000     0.788720000000    -0.391458   
O358     O      0.746710000000     0.517170000000     0.695460000000    -0.392279   
O359     O      0.695280000000     0.515650000000     0.737090000000    -0.391907   
O360     O      0.788460000000     0.517550000000     0.747230000000    -0.38959    
O361     O      0.766320000000     0.498150000000     0.538860000000    -0.392748   
O362     O      0.767030000000     0.487110000000     0.945880000000    -0.390082   
O363     O      0.767720000000     0.539370000000     0.986700000000    -0.391753   
O364     O      0.765460000000     0.946170000000     0.498040000000    -0.390524   
O365     O      0.714860000000     0.947350000000     0.488580000000    -0.393934   
O366     O      0.716900000000     0.540580000000     0.994860000000    -0.395456   
O367     O      0.716510000000     0.997030000000     0.944940000000    -0.393818   
O368     O      0.715380000000     0.990510000000     0.538300000000    -0.39223    
O369     O      0.538050000000     0.767620000000     0.490960000000    -0.392315   
O370     O      0.944350000000     0.768170000000     0.487880000000    -0.39257    
O371     O      0.988920000000     0.770230000000     0.537010000000    -0.390636   
O372     O      0.493540000000     0.765670000000     0.943740000000    -0.394628   
O373     O      0.488160000000     0.714420000000     0.946220000000    -0.390945   
O374     O      0.993580000000     0.718930000000     0.539770000000    -0.395634   
O375     O      0.944130000000     0.717280000000     0.995940000000    -0.39568    
O376     O      0.537460000000     0.716040000000     0.991880000000    -0.39553    
O377     O      0.739320000000     0.695550000000     0.516050000000    -0.394665   
O378     O      0.741700000000     0.789230000000     0.519570000000    -0.391487   
O379     O      0.693830000000     0.742050000000     0.517560000000    -0.392519   
O380     O      0.787210000000     0.740590000000     0.518230000000    -0.393264   
O381     O      0.787850000000     0.748200000000     0.967250000000    -0.391727   
O382     O      0.694270000000     0.742320000000     0.965940000000    -0.39122    
O383     O      0.737280000000     0.791060000000     0.968230000000    -0.393342   
O384     O      0.744910000000     0.697880000000     0.964850000000    -0.389197   
S1       S      0.333220000000     0.192820000000     0.026840000000     0.0011539  
S2       S      0.148390000000     0.191020000000     0.026060000000    -0.00725212 
S3       S      0.188490000000     0.336350000000     0.959490000000    -0.00729697 
S4       S      0.291790000000     0.150730000000     0.952740000000    -0.00231851 
S5       S      0.276460000000     0.440270000000     0.399500000000    -0.000190391
S6       S      0.207020000000     0.442570000000     0.084240000000     0.00108317 
S7       S      0.044260000000     0.269490000000     0.399170000000    -0.00520678 
S8       S      0.441710000000     0.281000000000     0.084780000000    -0.000818084
S9       S      0.149540000000     0.456990000000     0.292720000000    -0.00143414 
S10      S      0.335170000000     0.025660000000     0.294970000000     0.000893618
S11      S      0.460230000000     0.333000000000     0.190640000000    -0.00661616 
S12      S      0.458240000000     0.147940000000     0.188570000000    -0.000957491
S13      S      0.333220000000     0.192820000000     0.526840000000    -0.000399037
S14      S      0.148390000000     0.191020000000     0.526060000000    -0.00838143 
S15      S      0.188490000000     0.336350000000     0.459490000000    -0.00674361 
S16      S      0.291790000000     0.150730000000     0.452740000000    -0.00142572 
S17      S      0.276460000000     0.440270000000     0.899500000000    -0.00052315 
S18      S      0.207020000000     0.442570000000     0.584240000000    -0.000199113
S19      S      0.044260000000     0.269490000000     0.899170000000    -0.00541888 
S20      S      0.441710000000     0.281000000000     0.584780000000    -0.00203357 
S21      S      0.149540000000     0.456990000000     0.792720000000    -0.00152419 
S22      S      0.335170000000     0.025660000000     0.794970000000     0.00079297 
S23      S      0.460230000000     0.333000000000     0.690630000000    -0.00684807 
S24      S      0.458240000000     0.147940000000     0.688570000000    -0.00121726 
S25      S      0.333220000000     0.692820000000     0.026840000000     0.000921945
S26      S      0.148390000000     0.691020000000     0.026060000000    -0.00751174 
S27      S      0.188490000000     0.836350000000     0.959490000000    -0.0074098  
S28      S      0.291790000000     0.650730000000     0.952740000000    -0.00264705 
S29      S      0.276460000000     0.940270000000     0.399500000000    -0.000659289
S30      S      0.207020000000     0.942570000000     0.084240000000     0.000644846
S31      S      0.044260000000     0.769480000000     0.399170000000    -0.00532095 
S32      S      0.441710000000     0.781000000000     0.084780000000    -0.000944145
S33      S      0.149540000000     0.956990000000     0.292720000000    -0.00223394 
S34      S      0.335170000000     0.525660000000     0.294970000000    -0.0006273  
S35      S      0.460230000000     0.833000000000     0.190640000000    -0.00672858 
S36      S      0.458240000000     0.647940000000     0.188570000000    -0.001352   
S37      S      0.333220000000     0.692820000000     0.526840000000    -0.000637647
S38      S      0.148390000000     0.691020000000     0.526060000000    -0.0086459  
S39      S      0.188490000000     0.836350000000     0.459490000000    -0.00685644 
S40      S      0.291790000000     0.650730000000     0.452740000000    -0.00175183 
S41      S      0.276460000000     0.940270000000     0.899500000000    -0.000991979
S42      S      0.207020000000     0.942570000000     0.584240000000    -0.00063946 
S43      S      0.044260000000     0.769480000000     0.899170000000    -0.00553323 
S44      S      0.441710000000     0.781000000000     0.584780000000    -0.00216212 
S45      S      0.149540000000     0.956990000000     0.792720000000    -0.00232426 
S46      S      0.335170000000     0.525660000000     0.794970000000    -0.000730801
S47      S      0.460230000000     0.833000000000     0.690630000000    -0.00696102 
S48      S      0.458240000000     0.647940000000     0.688570000000    -0.0016139  
S49      S      0.833230000000     0.192820000000     0.026840000000     0.00105817 
S50      S      0.648390000000     0.191020000000     0.026060000000    -0.00762083 
S51      S      0.688490000000     0.336350000000     0.959490000000    -0.00753083 
S52      S      0.791790000000     0.150730000000     0.952740000000    -0.00241254 
S53      S      0.776460000000     0.440270000000     0.399500000000    -0.000322898
S54      S      0.707020000000     0.442570000000     0.084240000000     0.000793053
S55      S      0.544260000000     0.269490000000     0.399170000000    -0.00638601 
S56      S      0.941710000000     0.281000000000     0.084780000000    -0.00116141 
S57      S      0.649540000000     0.456990000000     0.292720000000    -0.00177014 
S58      S      0.835170000000     0.025660000000     0.294970000000     0.000752771
S59      S      0.960230000000     0.333000000000     0.190640000000    -0.00721148 
S60      S      0.958230000000     0.147940000000     0.188570000000    -0.00171021 
S61      S      0.833230000000     0.192820000000     0.526840000000    -0.000497149
S62      S      0.648390000000     0.191020000000     0.526060000000    -0.00875545 
S63      S      0.688490000000     0.336350000000     0.459490000000    -0.00697637 
S64      S      0.791790000000     0.150730000000     0.452740000000    -0.00151927 
S65      S      0.776460000000     0.440270000000     0.899500000000    -0.000655767
S66      S      0.707020000000     0.442570000000     0.584240000000    -0.000493755
S67      S      0.544260000000     0.269490000000     0.899170000000    -0.00659944 
S68      S      0.941710000000     0.281000000000     0.584780000000    -0.00237823 
S69      S      0.649540000000     0.456990000000     0.792720000000    -0.00186088 
S70      S      0.835170000000     0.025660000000     0.794970000000     0.000652157
S71      S      0.960230000000     0.333000000000     0.690630000000    -0.00744466 
S72      S      0.958230000000     0.147940000000     0.688570000000    -0.00197198 
S73      S      0.833230000000     0.692820000000     0.026840000000     0.000825671
S74      S      0.648390000000     0.691020000000     0.026060000000    -0.00788246 
S75      S      0.688490000000     0.836350000000     0.959490000000    -0.00764419 
S76      S      0.791790000000     0.650730000000     0.952740000000    -0.00274177 
S77      S      0.776460000000     0.940270000000     0.399500000000    -0.000791897
S78      S      0.707020000000     0.942570000000     0.084240000000     0.000353511
S79      S      0.544260000000     0.769480000000     0.399170000000    -0.0065026  
S80      S      0.941710000000     0.781000000000     0.084780000000    -0.0012874  
S81      S      0.649540000000     0.956990000000     0.292720000000    -0.00257178 
S82      S      0.835170000000     0.525660000000     0.294970000000    -0.000770902
S83      S      0.960230000000     0.833000000000     0.190640000000    -0.0073239  
S84      S      0.958230000000     0.647940000000     0.188570000000    -0.00210676 
S85      S      0.833230000000     0.692820000000     0.526840000000    -0.000736299
S86      S      0.648390000000     0.691020000000     0.526060000000    -0.00902195 
S87      S      0.688490000000     0.836350000000     0.459490000000    -0.00708973 
S88      S      0.791790000000     0.650730000000     0.452740000000    -0.00184608 
S89      S      0.776460000000     0.940270000000     0.899500000000    -0.00112469 
S90      S      0.707020000000     0.942570000000     0.584240000000    -0.000935315
S91      S      0.544260000000     0.769480000000     0.899170000000    -0.0067162  
S92      S      0.941710000000     0.781000000000     0.584780000000    -0.00250671 
S93      S      0.649540000000     0.956990000000     0.792720000000    -0.00266279 
S94      S      0.835170000000     0.525660000000     0.794970000000    -0.00087436 
S95      S      0.960230000000     0.833000000000     0.690630000000    -0.0075576  
S96      S      0.958230000000     0.647940000000     0.688570000000    -0.00237066 


