data_structure

_audit_creation_method RASPA-1.0
_audit_creation_date 2023-6-5
_audit_author_name 'Poobodin Mano'

_cell_length_a    35.6228
_cell_length_b    35.6163
_cell_length_c    21.216
_cell_angle_alpha 89.9798
_cell_angle_beta  90.0203
_cell_angle_gamma 119.984
_cell_volume      23315.3

_symmetry_cell_setting          triclinic
_symmetry_space_group_name_Hall 'P 1'
_symmetry_space_group_name_H-M  'P 1'
_symmetry_Int_Tables_number     1

_symmetry_equiv_pos_as_xyz 'x,y,z'

loop_
_atom_site_label
_atom_site_type_symbol
_atom_site_fract_x
_atom_site_fract_y
_atom_site_fract_z
_atom_site_charge
C1       C      0.915860000000     0.705440000000     0.677590000000     0.403431   
C2       C      0.750610000000     0.629620000000     0.604250000000     0.415685   
C3       C      0.811460000000     0.664570000000     0.761630000000     0.404329   
C4       C      0.855030000000     0.670350000000     0.520100000000     0.403388   
C5       C      0.083040000000     0.787420000000     0.773610000000     0.414501   
C6       C      0.248380000000     0.874940000000     0.846960000000     0.402387   
C7       C      0.187690000000     0.850070000000     0.689450000000     0.403947   
C8       C      0.143680000000     0.813030000000     0.930930000000     0.404144   
C9       C      0.415910000000     0.958210000000     0.942240000000     0.414211   
C10      C      0.581680000000     0.039690000000     0.014760000000     0.413443   
C11      C      0.520540000000     0.002180000000     0.857600000000     0.404499   
C12      C      0.476980000000     0.995640000000     0.099200000000     0.402465   
C13      C      0.249530000000     0.373140000000     0.343290000000     0.402389   
C14      C      0.084010000000     0.296110000000     0.270730000000     0.4168     
C15      C      0.145030000000     0.331710000000     0.427870000000     0.420707   
C16      C      0.188370000000     0.336980000000     0.186260000000     0.403208   
C17      C      0.916160000000     0.211630000000     0.176850000000     0.403435   
C18      C      0.750390000000     0.124020000000     0.105700000000     0.403977   
C19      C      0.811940000000     0.148430000000     0.261850000000     0.403998   
C20      C      0.854300000000     0.187060000000     0.020200000000     0.418794   
C21      C      0.417080000000     0.457700000000     0.438540000000     0.41341    
C22      C      0.582590000000     0.544950000000     0.511170000000     0.403244   
C23      C      0.521270000000     0.520210000000     0.354440000000     0.402627   
C24      C      0.478380000000     0.481710000000     0.596110000000     0.404594   
C25      C      0.211800000000     0.296400000000     0.771530000000     0.413308   
C26      C      0.122410000000     0.372690000000     0.843270000000     0.402934   
C27      C      0.147800000000     0.336680000000     0.686360000000     0.40427    
C28      C      0.186450000000     0.332340000000     0.927980000000     0.415682   
C29      C      0.370420000000     0.121200000000     0.607340000000     0.402409   
C30      C      0.294360000000     0.210740000000     0.679090000000     0.402647   
C31      C      0.329440000000     0.184720000000     0.522480000000     0.40409    
C32      C      0.334710000000     0.147070000000     0.764150000000     0.403182   
C33      C      0.037730000000     0.455570000000     0.938330000000     0.413928   
C34      C      0.961820000000     0.545010000000     0.011910000000     0.403713   
C35      C      0.996630000000     0.518890000000     0.854380000000     0.404327   
C36      C      0.003440000000     0.481680000000     0.095900000000     0.402979   
C37      C      0.703880000000     0.788680000000     0.271460000000     0.403752   
C38      C      0.628510000000     0.878630000000     0.345020000000     0.412709   
C39      C      0.663100000000     0.852730000000     0.187560000000     0.415051   
C40      C      0.668960000000     0.814440000000     0.428970000000     0.420265   
C41      C      0.786940000000     0.703950000000     0.177070000000     0.415287   
C42      C      0.878100000000     0.629290000000     0.105510000000     0.413966   
C43      C      0.852520000000     0.665280000000     0.261830000000     0.414736   
C44      C      0.812580000000     0.667480000000     0.020210000000     0.419514   
C45      C      0.544260000000     0.961410000000     0.441980000000     0.402743   
C46      C      0.453910000000     0.036620000000     0.514140000000     0.414991   
C47      C      0.479240000000     0.000580000000     0.357470000000     0.420829   
C48      C      0.519050000000     0.998310000000     0.599000000000     0.414901   
C49      C      0.368770000000     0.249550000000     0.107220000000     0.412769   
C50      C      0.291770000000     0.083840000000     0.179340000000     0.402249   
C51      C      0.328600000000     0.145100000000     0.022480000000     0.420655   
C52      C      0.331840000000     0.187490000000     0.263990000000     0.413696   
C53      C      0.454200000000     0.417080000000     0.012020000000     0.401931   
C54      C      0.544280000000     0.582350000000     0.938470000000     0.417242   
C55      C      0.518420000000     0.521790000000     0.095960000000     0.421306   
C56      C      0.479900000000     0.477860000000     0.854510000000     0.414918   
C57      C      0.208500000000     0.916250000000     0.274830000000     0.412825   
C58      C      0.123430000000     0.750060000000     0.345030000000     0.404612   
C59      C      0.145940000000     0.812510000000     0.189320000000     0.414643   
C60      C      0.186290000000     0.853390000000     0.431010000000     0.41882    
C61      C      0.041030000000     0.582160000000     0.438860000000     0.414946   
C62      C      0.961820000000     0.416390000000     0.510580000000     0.4022     
C63      C      0.000810000000     0.478600000000     0.354270000000     0.417221   
C64      C      0.001360000000     0.519880000000     0.595790000000     0.414036   
C65      C      0.877330000000     0.248610000000     0.604730000000     0.413781   
C66      C      0.787090000000     0.083240000000     0.677530000000     0.403525   
C67      C      0.812520000000     0.145040000000     0.520350000000     0.414863   
C68      C      0.851760000000     0.187500000000     0.761790000000     0.404444   
C69      C      0.627230000000     0.750110000000     0.844190000000     0.40401    
C70      C      0.702610000000     0.915760000000     0.772640000000     0.413609   
C71      C      0.666950000000     0.854140000000     0.929250000000     0.403502   
C72      C      0.663260000000     0.811840000000     0.687490000000     0.404362   
C73      C      0.787030000000     0.019670000000     0.711080000000     0.0241145  
C74      C      0.721960000000     0.021670000000     0.714330000000    -0.030265   
C75      C      0.765900000000     0.978150000000     0.736570000000     0.0363927  
C76      C      0.700270000000     0.979470000000     0.739220000000     0.203509   
C77      C      0.897700000000     0.353010000000     0.543260000000     0.0225938  
C78      C      0.964370000000     0.354190000000     0.546580000000    -0.0314898  
C79      C      0.876940000000     0.311320000000     0.568400000000     0.0350321  
C80      C      0.943470000000     0.311790000000     0.570530000000     0.203021   
C81      C      0.059350000000     0.687100000000     0.381120000000     0.0255706  
C82      C      0.125400000000     0.687110000000     0.376500000000    -0.0304925  
C83      C      0.038860000000     0.644810000000     0.405040000000     0.038274   
C84      C      0.105310000000     0.645130000000     0.401050000000     0.206313   
C85      C      0.563740000000     0.686430000000     0.877350000000     0.0253147  
C86      C      0.630730000000     0.688250000000     0.879860000000    -0.0293923  
C87      C      0.543370000000     0.644790000000     0.902460000000     0.0387561  
C88      C      0.610170000000     0.645790000000     0.903830000000     0.205312   
C89      C      0.294010000000     0.021320000000     0.215270000000     0.0250217  
C90      C      0.227870000000     0.021210000000     0.214130000000    -0.0329683  
C91      C      0.272750000000     0.979130000000     0.239760000000     0.0370728  
C92      C      0.206680000000     0.979630000000     0.240070000000     0.201345   
C93      C      0.453910000000     0.353530000000     0.046570000000     0.0230743  
C94      C      0.388810000000     0.355520000000     0.048030000000    -0.03261    
C95      C      0.432500000000     0.311960000000     0.072050000000     0.0357373  
C96      C      0.366890000000     0.313340000000     0.072950000000     0.2019     
C97      C      0.627170000000     0.788240000000     0.588980000000     0.0263132  
C98      C      0.703310000000     0.821350000000     0.593570000000    -0.0305233  
C99      C      0.628950000000     0.787720000000     0.523320000000     0.0391932  
C100     C      0.705470000000     0.823800000000     0.527670000000     0.206283   
C101     C      0.703730000000     0.878820000000     0.027050000000     0.0248324  
C102     C      0.627490000000     0.844970000000     0.023690000000    -0.0316703  
C103     C      0.702480000000     0.879730000000     0.092740000000     0.0371066  
C104     C      0.625940000000     0.843380000000     0.089630000000     0.203991   
C105     C      0.767240000000     0.788680000000     0.237010000000     0.0250187  
C106     C      0.700490000000     0.723270000000     0.236230000000    -0.029547   
C107     C      0.787620000000     0.767420000000     0.211860000000     0.03693    
C108     C      0.721080000000     0.701380000000     0.212290000000     0.203995   
C109     C      0.544310000000     0.897910000000     0.408290000000     0.0239406  
C110     C      0.609280000000     0.965030000000     0.404460000000    -0.0308145  
C111     C      0.565370000000     0.877590000000     0.382290000000     0.0363134  
C112     C      0.630890000000     0.944580000000     0.379040000000     0.202767   
C113     C      0.035720000000     0.547580000000     0.759290000000     0.0253756  
C114     C      0.959440000000     0.505710000000     0.756770000000    -0.030973   
C115     C      0.036870000000     0.546390000000     0.693600000000     0.0398095  
C116     C      0.960280000000     0.506570000000     0.690810000000     0.20469    
C117     C      0.965200000000     0.451810000000     0.191220000000     0.0247917  
C118     C      0.041480000000     0.493810000000     0.192610000000    -0.0314544  
C119     C      0.964610000000     0.452210000000     0.256960000000     0.0393482  
C120     C      0.041210000000     0.491780000000     0.258530000000     0.204131   
C121     C      0.898270000000     0.544760000000     0.046060000000     0.0250088  
C122     C      0.964930000000     0.610280000000     0.047250000000    -0.0305032  
C123     C      0.877710000000     0.565890000000     0.071020000000     0.0381156  
C124     C      0.944240000000     0.631940000000     0.071690000000     0.202783   
C125     C      0.370830000000     0.160410000000     0.862800000000     0.0240321  
C126     C      0.294770000000     0.116610000000     0.858080000000    -0.0331609  
C127     C      0.368960000000     0.158420000000     0.928500000000     0.0381777  
C128     C      0.292480000000     0.117210000000     0.923890000000     0.205455   
C129     C      0.367850000000     0.214080000000     0.427050000000     0.0241181  
C130     C      0.291520000000     0.172690000000     0.425850000000    -0.0319311  
C131     C      0.368350000000     0.213470000000     0.361280000000     0.038165   
C132     C      0.291720000000     0.174060000000     0.359960000000     0.203316   
C133     C      0.434050000000     0.121220000000     0.574170000000     0.023767   
C134     C      0.367220000000     0.055890000000     0.572200000000    -0.0314786  
C135     C      0.454560000000     0.100000000000     0.549370000000     0.0360992  
C136     C      0.387920000000     0.034050000000     0.548550000000     0.20286    
C137     C      0.122320000000     0.436250000000     0.876640000000     0.0237844  
C138     C      0.057220000000     0.369230000000     0.879360000000    -0.0307159  
C139     C      0.101080000000     0.456600000000     0.901970000000     0.0361298  
C140     C      0.035360000000     0.389740000000     0.903580000000     0.202436   
C141     C      0.230970000000     0.211120000000     0.712450000000     0.0236869  
C142     C      0.297980000000     0.276270000000     0.713960000000    -0.0312486  
C143     C      0.210690000000     0.232630000000     0.737100000000     0.0362596  
C144     C      0.277610000000     0.298280000000     0.738140000000     0.202561   
C145     C      0.454430000000     0.494070000000     0.694390000000     0.0262406  
C146     C      0.487300000000     0.450780000000     0.690110000000    -0.0312928  
C147     C      0.453490000000     0.491500000000     0.760060000000     0.0385593  
C148     C      0.488960000000     0.450460000000     0.756050000000     0.20428    
C149     C      0.544950000000     0.507300000000     0.256350000000     0.0245793  
C150     C      0.512030000000     0.550550000000     0.260040000000    -0.0323807  
C151     C      0.545370000000     0.509150000000     0.190650000000     0.0401292  
C152     C      0.509470000000     0.549810000000     0.194130000000     0.205903   
C153     C      0.880370000000     0.177070000000     0.857010000000     0.0249823  
C154     C      0.841190000000     0.214310000000     0.858510000000    -0.0301327  
C155     C      0.879660000000     0.175740000000     0.922790000000     0.0389349  
C156     C      0.842990000000     0.215700000000     0.924360000000     0.204941   
C157     C      0.821430000000     0.118830000000     0.356810000000     0.0255622  
C158     C      0.786500000000     0.160240000000     0.358920000000    -0.0312439  
C159     C      0.822860000000     0.119350000000     0.422590000000     0.0400879  
C160     C      0.785630000000     0.158760000000     0.424790000000     0.204439   
C161     C      0.160430000000     0.373110000000     0.588090000000     0.0263693  
C162     C      0.117180000000     0.296970000000     0.592210000000    -0.030645   
C163     C      0.158220000000     0.371530000000     0.522400000000     0.039532   
C164     C      0.117560000000     0.295010000000     0.526310000000     0.20606    
C165     C      0.212270000000     0.373650000000     0.088190000000     0.0240792  
C166     C      0.179660000000     0.297500000000     0.092030000000    -0.0318464  
C167     C      0.213080000000     0.372210000000     0.022490000000     0.0384513  
C168     C      0.177900000000     0.295720000000     0.026120000000     0.206216   
C169     C      0.979790000000     0.211400000000     0.209850000000     0.0255168  
C170     C      0.978090000000     0.276630000000     0.212580000000    -0.0300375  
C171     C      0.021500000000     0.232620000000     0.234920000000     0.0372121  
C172     C      0.020480000000     0.298430000000     0.236500000000     0.203273   
C173     C      0.312090000000     0.371250000000     0.380140000000     0.0239237  
C174     C      0.312520000000     0.437520000000     0.375450000000    -0.0334249  
C175     C      0.354340000000     0.392880000000     0.404450000000     0.0371211  
C176     C      0.354370000000     0.459190000000     0.400190000000     0.202711   
C177     C      0.511490000000     0.963460000000     0.762480000000     0.0260662  
C178     C      0.544800000000     0.039680000000     0.760390000000    -0.0308121  
C179     C      0.509740000000     0.962510000000     0.696720000000     0.0406472  
C180     C      0.545450000000     0.039100000000     0.694480000000     0.2047     
C181     C      0.454210000000     0.958880000000     0.197400000000     0.0236337  
C182     C      0.484410000000     0.034750000000     0.193320000000    -0.0337942  
C183     C      0.453480000000     0.960380000000     0.263110000000     0.0380512  
C184     C      0.486750000000     0.036760000000     0.259170000000     0.205142   
C185     C      0.687620000000     0.059380000000     0.070330000000     0.0243968  
C186     C      0.686860000000     0.125050000000     0.074960000000    -0.0311567  
C187     C      0.645110000000     0.038430000000     0.047170000000     0.0363358  
C188     C      0.644620000000     0.104480000000     0.051420000000     0.203142   
C189     C      0.178180000000     0.879620000000     0.594620000000     0.0245911  
C190     C      0.212670000000     0.837800000000     0.592030000000    -0.0297153  
C191     C      0.176570000000     0.879170000000     0.528910000000     0.0394704  
C192     C      0.213940000000     0.839920000000     0.526120000000     0.205008   
C193     C      0.153170000000     0.784150000000     0.026490000000     0.0251446  
C194     C      0.118800000000     0.826110000000     0.027770000000    -0.0295855  
C195     C      0.155100000000     0.785450000000     0.092200000000     0.0387255  
C196     C      0.118350000000     0.825340000000     0.093740000000     0.205694   
C197     C      0.311050000000     0.939370000000     0.883060000000     0.0242629  
C198     C      0.310780000000     0.873130000000     0.881570000000    -0.0331338  
C199     C      0.353190000000     0.960000000000     0.907560000000     0.0366944  
C200     C      0.352370000000     0.893250000000     0.907380000000     0.202336   
C201     C      0.821250000000     0.703240000000     0.857020000000     0.0253292  
C202     C      0.785770000000     0.626890000000     0.858520000000    -0.0299979  
C203     C      0.822750000000     0.703870000000     0.922790000000     0.0403738  
C204     C      0.784560000000     0.627250000000     0.924430000000     0.206021   
C205     C      0.878500000000     0.707000000000     0.421870000000     0.0243562  
C206     C      0.846590000000     0.630930000000     0.425910000000    -0.0328964  
C207     C      0.879160000000     0.705480000000     0.356140000000     0.037105   
C208     C      0.844740000000     0.629040000000     0.360030000000     0.203716   
C209     C      0.646240000000     0.544820000000     0.544100000000     0.0247728  
C210     C      0.644670000000     0.610130000000     0.546160000000    -0.0309011  
C211     C      0.688010000000     0.566120000000     0.568840000000     0.0374584  
C212     C      0.687150000000     0.632010000000     0.569810000000     0.203322   
C213     C      0.979470000000     0.768810000000     0.711530000000     0.0251593  
C214     C      0.977160000000     0.701570000000     0.714580000000    -0.0297466  
C215     C      0.020970000000     0.788960000000     0.737210000000     0.0363346  
C216     C      0.019200000000     0.721780000000     0.739830000000     0.203712   
Cu1      Cu     0.836530000000     0.703550000000     0.635800000000     0.853386   
Cu2      Cu     0.830070000000     0.631540000000     0.645970000000     0.857547   
Cu3      Cu     0.163130000000     0.864570000000     0.815060000000     0.851488   
Cu4      Cu     0.168390000000     0.798310000000     0.805320000000     0.85842    
Cu5      Cu     0.500490000000     0.034180000000     0.973060000000     0.856875   
Cu6      Cu     0.497120000000     0.963620000000     0.983760000000     0.851618   
Cu7      Cu     0.169690000000     0.370280000000     0.301690000000     0.857423   
Cu8      Cu     0.163910000000     0.298610000000     0.312440000000     0.852283   
Cu9      Cu     0.830580000000     0.200760000000     0.146930000000     0.86205    
Cu10     Cu     0.836070000000     0.134730000000     0.135330000000     0.846254   
Cu11     Cu     0.497160000000     0.534110000000     0.480980000000     0.85966    
Cu12     Cu     0.502450000000     0.467970000000     0.469580000000     0.846949   
Cu13     Cu     0.134310000000     0.298630000000     0.812780000000     0.856922   
Cu14     Cu     0.199810000000     0.370540000000     0.801700000000     0.853757   
Cu15     Cu     0.296340000000     0.133080000000     0.638070000000     0.852325   
Cu16     Cu     0.368280000000     0.198720000000     0.648400000000     0.849979   
Cu17     Cu     0.963920000000     0.467540000000     0.970470000000     0.854778   
Cu18     Cu     0.035830000000     0.533240000000     0.979980000000     0.849139   
Cu19     Cu     0.630130000000     0.800850000000     0.303120000000     0.858444   
Cu20     Cu     0.702140000000     0.866280000000     0.313310000000     0.85441    
Cu21     Cu     0.800070000000     0.630500000000     0.147170000000     0.862708   
Cu22     Cu     0.864880000000     0.702710000000     0.135120000000     0.856097   
Cu23     Cu     0.466720000000     0.963020000000     0.484180000000     0.851718   
Cu24     Cu     0.531710000000     0.035160000000     0.472060000000     0.86153    
Cu25     Cu     0.366220000000     0.169640000000     0.149070000000     0.850075   
Cu26     Cu     0.294540000000     0.163620000000     0.137190000000     0.86237    
Cu27     Cu     0.531820000000     0.496280000000     0.970090000000     0.858816   
Cu28     Cu     0.466520000000     0.503100000000     0.980440000000     0.851559   
Cu29     Cu     0.199330000000     0.830940000000     0.303090000000     0.854076   
Cu30     Cu     0.132880000000     0.835280000000     0.317130000000     0.859956   
Cu31     Cu     0.036860000000     0.501980000000     0.481970000000     0.860589   
Cu32     Cu     0.965590000000     0.496610000000     0.468120000000     0.854283   
Cu33     Cu     0.864620000000     0.162330000000     0.635480000000     0.85362    
Cu34     Cu     0.799540000000     0.169450000000     0.646910000000     0.861574   
Cu35     Cu     0.701020000000     0.836270000000     0.814000000000     0.852314   
Cu36     Cu     0.628950000000     0.829520000000     0.802790000000     0.855518   
H1       H      0.785080000000     0.962610000000     0.743960000000     0.0384131  
H2       H      0.821340000000     0.034010000000     0.701070000000     0.0416302  
H3       H      0.703500000000     0.037950000000     0.706570000000     0.0699641  
H4       H      0.655620000000     0.969420000000     0.796810000000     0.15451    
H5       H      0.842250000000     0.296040000000     0.575830000000     0.039087   
H6       H      0.878080000000     0.367780000000     0.533390000000     0.0416494  
H7       H      0.999110000000     0.370180000000     0.539050000000     0.0685593  
H8       H      0.968770000000     0.278650000000     0.544050000000     0.158681   
H9       H      0.004540000000     0.629550000000     0.415550000000     0.0399368  
H10      H      0.039950000000     0.702440000000     0.374160000000     0.0429879  
H11      H      0.159740000000     0.702480000000     0.365930000000     0.070151   
H12      H      0.128040000000     0.611090000000     0.368380000000     0.160437   
H13      H      0.508700000000     0.629350000000     0.910210000000     0.0401123  
H14      H      0.543800000000     0.700880000000     0.867810000000     0.0428992  
H15      H      0.665440000000     0.704510000000     0.872000000000     0.068048   
H16      H      0.635620000000     0.612910000000     0.876860000000     0.156641   
H17      H      0.292010000000     0.963860000000     0.248750000000     0.041543   
H18      H      0.328570000000     0.036660000000     0.206600000000     0.0447245  
H19      H      0.208620000000     0.036480000000     0.204890000000     0.0672594  
H20      H      0.160350000000     0.969570000000     0.294310000000     0.153493   
H21      H      0.451580000000     0.296390000000     0.080190000000     0.0385869  
H22      H      0.488310000000     0.367890000000     0.037270000000     0.0423416  
H23      H      0.370420000000     0.371780000000     0.039560000000     0.0650557  
H24      H      0.321710000000     0.303370000000     0.129460000000     0.154337   
H25      H      0.598600000000     0.774230000000     0.497670000000     0.0379195  
H26      H      0.595650000000     0.774630000000     0.611320000000     0.0414717  
H27      H      0.733500000000     0.834910000000     0.619650000000     0.0652223  
H28      H      0.756420000000     0.872900000000     0.497450000000     0.158311   
H29      H      0.733030000000     0.893510000000     0.117920000000     0.0370391  
H30      H      0.735090000000     0.892530000000     0.004200000000     0.0399886  
H31      H      0.597070000000     0.830850000000     0.998100000000     0.065295   
H32      H      0.581130000000     0.850090000000     0.125950000000     0.149289   
H33      H      0.822190000000     0.786770000000     0.203390000000     0.0394117  
H34      H      0.787080000000     0.823170000000     0.245830000000     0.0425078  
H35      H      0.665860000000     0.704710000000     0.244810000000     0.0695787  
H36      H      0.696200000000     0.643320000000     0.240350000000     0.156476   
H37      H      0.546210000000     0.842860000000     0.374960000000     0.0394934  
H38      H      0.510070000000     0.877900000000     0.418710000000     0.0419438  
H39      H      0.627720000000     0.999760000000     0.412140000000     0.0689005  
H40      H      0.675160000000     0.979260000000     0.320990000000     0.15328    
H41      H      0.068270000000     0.562380000000     0.670580000000     0.0400187  
H42      H      0.066340000000     0.563790000000     0.784360000000     0.0417632  
H43      H      0.928240000000     0.488660000000     0.780220000000     0.0648395  
H44      H      0.915180000000     0.455110000000     0.654450000000     0.152629   
H45      H      0.933390000000     0.436000000000     0.280470000000     0.0367652  
H46      H      0.934380000000     0.435820000000     0.166660000000     0.0411373  
H47      H      0.072490000000     0.511200000000     0.168690000000     0.0640213  
H48      H      0.088840000000     0.490260000000     0.295230000000     0.156737   
H49      H      0.843090000000     0.546500000000     0.079080000000     0.0431628  
H50      H      0.878520000000     0.510280000000     0.037060000000     0.0431595  
H51      H      0.999570000000     0.628940000000     0.038830000000     0.0666485  
H52      H      0.979000000000     0.677550000000     0.127870000000     0.155372   
H53      H      0.399220000000     0.175700000000     0.954280000000     0.0369123  
H54      H      0.402350000000     0.178540000000     0.840510000000     0.0402023  
H55      H      0.264620000000     0.099530000000     0.831970000000     0.0642483  
H56      H      0.241110000000     0.114760000000     0.953490000000     0.158322   
H57      H      0.399530000000     0.229480000000     0.337660000000     0.0366528  
H58      H      0.398680000000     0.229900000000     0.451600000000     0.0405783  
H59      H      0.260510000000     0.155680000000     0.449850000000     0.0637686  
H60      H      0.245960000000     0.123050000000     0.323610000000     0.152387   
H61      H      0.489210000000     0.119290000000     0.541540000000     0.0400303  
H62      H      0.453870000000     0.155670000000     0.583410000000     0.0418137  
H63      H      0.332530000000     0.037350000000     0.580170000000     0.0656942  
H64      H      0.362700000000     0.975850000000     0.576100000000     0.154186   
H65      H      0.120270000000     0.491280000000     0.909730000000     0.0384273  
H66      H      0.156680000000     0.456190000000     0.866930000000     0.0414122  
H67      H      0.038760000000     0.334510000000     0.871510000000     0.0675343  
H68      H      0.976960000000     0.364190000000     0.876920000000     0.155415   
H69      H      0.176020000000     0.213530000000     0.744940000000     0.0393137  
H70      H      0.210990000000     0.176670000000     0.703400000000     0.0413529  
H71      H      0.332660000000     0.294660000000     0.705780000000     0.0657454  
H72      H      0.312560000000     0.343720000000     0.794450000000     0.154001   
H73      H      0.440090000000     0.508470000000     0.785620000000     0.037651   
H74      H      0.441120000000     0.512230000000     0.671910000000     0.0425812  
H75      H      0.501030000000     0.434250000000     0.664160000000     0.0650027  
H76      H      0.481650000000     0.398490000000     0.791660000000     0.150689   
H77      H      0.558750000000     0.492050000000     0.165360000000     0.0383868  
H78      H      0.558500000000     0.489450000000     0.279070000000     0.0408262  
H79      H      0.498550000000     0.567390000000     0.285780000000     0.0638235  
H80      H      0.460410000000     0.551670000000     0.163690000000     0.155494   
H81      H      0.894600000000     0.159450000000     0.946270000000     0.0372119  
H82      H      0.895230000000     0.161160000000     0.832310000000     0.041081   
H83      H      0.825070000000     0.229300000000     0.834620000000     0.0659746  
H84      H      0.847030000000     0.265990000000     0.961080000000     0.156123   
H85      H      0.838160000000     0.103310000000     0.445850000000     0.0381688  
H86      H      0.836350000000     0.103070000000     0.331850000000     0.0412959  
H87      H      0.772390000000     0.177300000000     0.335300000000     0.0641889  
H88      H      0.791010000000     0.209740000000     0.461500000000     0.152036   
H89      H      0.175200000000     0.401950000000     0.496910000000     0.0389523  
H90      H      0.178410000000     0.404560000000     0.610620000000     0.0420797  
H91      H      0.100420000000     0.266700000000     0.618110000000     0.0653193  
H92      H      0.115490000000     0.243990000000     0.495840000000     0.157657   
H93      H      0.226320000000     0.402640000000     0.997070000000     0.0362989  
H94      H      0.225510000000     0.405040000000     0.110850000000     0.0397024  
H95      H      0.166090000000     0.267170000000     0.117790000000     0.0665299  
H96      H      0.185450000000     0.251350000000     0.990010000000     0.153291   
H97      H      0.037000000000     0.213420000000     0.242610000000     0.0406399  
H98      H      0.965230000000     0.177010000000     0.200220000000     0.042059   
H99      H      0.961910000000     0.295190000000     0.204850000000     0.0670597  
H100     H      0.053220000000     0.356810000000     0.209640000000     0.155524   
H101     H      0.369470000000     0.373710000000     0.415160000000     0.0398673  
H102     H      0.296560000000     0.336510000000     0.373110000000     0.0435457  
H103     H      0.297440000000     0.456750000000     0.364720000000     0.0665675  
H104     H      0.388540000000     0.515970000000     0.367570000000     0.15115    
H105     H      0.494960000000     0.931210000000     0.673460000000     0.0387444  
H106     H      0.497310000000     0.932790000000     0.787420000000     0.0445863  
H107     H      0.558320000000     0.070790000000     0.784020000000     0.0663322  
H108     H      0.538530000000     0.083830000000     0.657900000000     0.151781   
H109     H      0.441150000000     0.930090000000     0.288660000000     0.0367697  
H110     H      0.441880000000     0.927570000000     0.174840000000     0.0397211  
H111     H      0.496870000000     0.064940000000     0.167450000000     0.0637123  
H112     H      0.534470000000     0.088800000000     0.289590000000     0.156895   
H113     H      0.630080000000     0.004090000000     0.036900000000     0.0384151  
H114     H      0.703370000000     0.040330000000     0.076950000000     0.0412687  
H115     H      0.701970000000     0.159410000000     0.085240000000     0.0694554  
H116     H      0.610610000000     0.127050000000     0.084710000000     0.151496   
H117     H      0.161240000000     0.895260000000     0.505900000000     0.0359653  
H118     H      0.163430000000     0.895500000000     0.619700000000     0.0404227  
H119     H      0.226540000000     0.820460000000     0.615480000000     0.0660139  
H120     H      0.262940000000     0.841660000000     0.488530000000     0.156169   
H121     H      0.170350000000     0.769480000000     0.115750000000     0.0363454  
H122     H      0.167720000000     0.767890000000     0.001910000000     0.0404031  
H123     H      0.104810000000     0.843150000000     0.003790000000     0.0663472  
H124     H      0.124480000000     0.876860000000     0.129590000000     0.160126   
H125     H      0.368580000000     0.994510000000     0.916700000000     0.0405653  
H126     H      0.295860000000     0.958770000000     0.874590000000     0.0438253  
H127     H      0.295350000000     0.838620000000     0.872200000000     0.0662523  
H128     H      0.362220000000     0.856800000000     0.961620000000     0.152919   
H129     H      0.838390000000     0.735130000000     0.946230000000     0.0382113  
H130     H      0.836380000000     0.734030000000     0.832360000000     0.041484   
H131     H      0.771450000000     0.595810000000     0.834640000000     0.0661093  
H132     H      0.735070000000     0.580190000000     0.961410000000     0.15829    
H133     H      0.892030000000     0.735830000000     0.330600000000     0.0377648  
H134     H      0.891490000000     0.738390000000     0.444440000000     0.0408648  
H135     H      0.833370000000     0.600650000000     0.451720000000     0.0658702  
H136     H      0.852880000000     0.585020000000     0.324000000000     0.150308   
H137     H      0.703440000000     0.546880000000     0.576690000000     0.0403307  
H138     H      0.631610000000     0.510380000000     0.534830000000     0.042551   
H139     H      0.628510000000     0.628690000000     0.538230000000     0.067472   
H140     H      0.719990000000     0.690220000000     0.542250000000     0.157585   
H141     H      0.036680000000     0.823670000000     0.744780000000     0.0388429  
H142     H      0.965270000000     0.788910000000     0.701470000000     0.0415542  
H143     H      0.960790000000     0.666850000000     0.706690000000     0.0692102  
H144     H      0.028690000000     0.686770000000     0.797440000000     0.156125   
N1       N      0.765230000000     0.041600000000     0.700260000000    -0.163093   
N2       N      0.722470000000     0.957610000000     0.750190000000    -0.201966   
N3       N      0.941430000000     0.374610000000     0.532770000000    -0.163748   
N4       N      0.899490000000     0.290370000000     0.581880000000    -0.202042   
N5       N      0.102620000000     0.708180000000     0.366910000000    -0.162463   
N6       N      0.061770000000     0.623850000000     0.415700000000    -0.201113   
N7       N      0.607430000000     0.708350000000     0.866450000000    -0.162992   
N8       N      0.566220000000     0.624110000000     0.915570000000    -0.200988   
N9       N      0.271440000000     0.042200000000     0.202210000000    -0.162935   
N10      N      0.229110000000     0.958160000000     0.252340000000    -0.201806   
N11      N      0.432210000000     0.375450000000     0.034840000000    -0.163709   
N12      N      0.388950000000     0.291430000000     0.084780000000    -0.202023   
N13      N      0.664440000000     0.806140000000     0.623860000000    -0.163023   
N14      N      0.668070000000     0.807840000000     0.492730000000    -0.203157   
N15      N      0.666160000000     0.860280000000     0.992810000000    -0.164098   
N16      N      0.663610000000     0.859510000000     0.123910000000    -0.203299   
N17      N      0.723670000000     0.766770000000     0.248880000000    -0.162841   
N18      N      0.764920000000     0.723760000000     0.199730000000    -0.201253   
N19      N      0.566090000000     0.941640000000     0.419020000000    -0.16317    
N20      N      0.608700000000     0.900530000000     0.368070000000    -0.201805   
N21      N      0.997150000000     0.525070000000     0.790640000000    -0.163525   
N22      N      0.999320000000     0.525190000000     0.659440000000    -0.201697   
N23      N      0.003480000000     0.474880000000     0.159390000000    -0.163833   
N24      N      0.002450000000     0.473170000000     0.290570000000    -0.203397   
N25      N      0.941880000000     0.566790000000     0.034420000000    -0.16348    
N26      N      0.900290000000     0.609520000000     0.083400000000    -0.200803   
N27      N      0.333620000000     0.140500000000     0.827850000000    -0.163925   
N28      N      0.329780000000     0.139190000000     0.958880000000    -0.203841   
N29      N      0.329550000000     0.191470000000     0.458980000000    -0.164021   
N30      N      0.330450000000     0.192670000000     0.327790000000    -0.203114   
N31      N      0.390360000000     0.099340000000     0.585220000000    -0.163637   
N32      N      0.431860000000     0.056410000000     0.536710000000    -0.201519   
N33      N      0.100560000000     0.392550000000     0.865730000000    -0.163374   
N34      N      0.057600000000     0.433710000000     0.915300000000    -0.201733   
N35      N      0.274610000000     0.232790000000     0.701160000000    -0.16372    
N36      N      0.233630000000     0.276240000000     0.749560000000    -0.201689   
N37      N      0.472400000000     0.474690000000     0.659690000000    -0.16325    
N38      N      0.473220000000     0.472150000000     0.790790000000    -0.20338    
N39      N      0.527130000000     0.526940000000     0.290800000000    -0.163761   
N40      N      0.525230000000     0.527980000000     0.159630000000    -0.202694   
N41      N      0.858780000000     0.193980000000     0.825240000000    -0.16367    
N42      N      0.859950000000     0.193940000000     0.956430000000    -0.202791   
N43      N      0.805580000000     0.141500000000     0.325340000000    -0.163979   
N44      N      0.805870000000     0.140080000000     0.456530000000    -0.202524   
N45      N      0.140940000000     0.335730000000     0.622740000000    -0.163065   
N46      N      0.139190000000     0.332500000000     0.491600000000    -0.20308    
N47      N      0.194430000000     0.336190000000     0.122670000000    -0.163628   
N48      N      0.193380000000     0.333220000000     0.991610000000    -0.203892   
N49      N      0.957940000000     0.233270000000     0.199070000000    -0.163539   
N50      N      0.042200000000     0.276140000000     0.248060000000    -0.201178   
N51      N      0.291280000000     0.393690000000     0.365690000000    -0.163294   
N52      N      0.375450000000     0.436760000000     0.415100000000    -0.20182    
N53      N      0.526700000000     0.001870000000     0.794000000000    -0.163332   
N54      N      0.525870000000     0.000160000000     0.662790000000    -0.202597   
N55      N      0.470840000000     0.996220000000     0.162790000000    -0.164003   
N56      N      0.472230000000     0.999420000000     0.293850000000    -0.203724   
N57      N      0.708420000000     0.102690000000     0.084200000000    -0.162883   
N58      N      0.623580000000     0.060880000000     0.037170000000    -0.201707   
N59      N      0.193870000000     0.856720000000     0.625870000000    -0.163558   
N60      N      0.193450000000     0.858480000000     0.494710000000    -0.202882   
N61      N      0.137430000000     0.806730000000     0.994550000000    -0.16387    
N62      N      0.138630000000     0.806820000000     0.125720000000    -0.202876   
N63      N      0.289990000000     0.895970000000     0.869860000000    -0.163373   
N64      N      0.374010000000     0.937110000000     0.919800000000    -0.202023   
N65      N      0.805130000000     0.664840000000     0.825200000000    -0.163309   
N66      N      0.805520000000     0.666020000000     0.956470000000    -0.202275   
N67      N      0.861050000000     0.669610000000     0.456470000000    -0.163653   
N68      N      0.859740000000     0.666440000000     0.325400000000    -0.203742   
N69      N      0.624410000000     0.566680000000     0.533160000000    -0.163441   
N70      N      0.708800000000     0.609710000000     0.581590000000    -0.201671   
N71      N      0.957430000000     0.725120000000     0.700490000000    -0.163485   
N72      N      0.041250000000     0.765820000000     0.750930000000    -0.201543   
O1       O      0.898890000000     0.728710000000     0.663000000000    -0.396243   
O2       O      0.772880000000     0.671070000000     0.609710000000    -0.381877   
O3       O      0.819870000000     0.697990000000     0.728300000000    -0.391322   
O4       O      0.853880000000     0.702710000000     0.544720000000    -0.393073   
O5       O      0.847200000000     0.637270000000     0.553840000000    -0.393165   
O6       O      0.812220000000     0.632100000000     0.736670000000    -0.391368   
O7       O      0.767830000000     0.606460000000     0.618160000000    -0.398377   
O8       O      0.893580000000     0.663930000000     0.672730000000    -0.38964    
O9       O      0.100680000000     0.827880000000     0.787360000000    -0.397698   
O10      O      0.226820000000     0.894950000000     0.841800000000    -0.389753   
O11      O      0.180130000000     0.875580000000     0.722910000000    -0.395073   
O12      O      0.145180000000     0.846560000000     0.905800000000    -0.392754   
O13      O      0.151500000000     0.787530000000     0.897790000000    -0.39365    
O14      O      0.186150000000     0.816400000000     0.714280000000    -0.388879   
O15      O      0.230650000000     0.834630000000     0.832640000000    -0.396916   
O16      O      0.104930000000     0.767850000000     0.779020000000    -0.380127   
O17      O      0.436920000000     0.999780000000     0.946870000000    -0.394693   
O18      O      0.563030000000     0.061380000000     0.000350000000    -0.383744   
O19      O      0.518370000000     0.033970000000     0.882290000000    -0.39154    
O20      O      0.483600000000     0.028260000000     0.065310000000    -0.394248   
O21      O      0.479500000000     0.963960000000     0.074780000000    -0.394336   
O22      O      0.513630000000     0.969350000000     0.891220000000    -0.390642   
O23      O      0.560820000000     0.998130000000     0.009630000000    -0.394539   
O24      O      0.434480000000     0.936460000000     0.956820000000    -0.385353   
O25      O      0.232010000000     0.395850000000     0.328480000000    -0.397641   
O26      O      0.106130000000     0.337560000000     0.275950000000    -0.383682   
O27      O      0.153200000000     0.364940000000     0.394210000000    -0.394444   
O28      O      0.186960000000     0.369270000000     0.210670000000    -0.394489   
O29      O      0.180810000000     0.304070000000     0.220190000000    -0.393001   
O30      O      0.146220000000     0.299410000000     0.403210000000    -0.389709   
O31      O      0.101410000000     0.273110000000     0.284760000000    -0.39458    
O32      O      0.227670000000     0.331560000000     0.338980000000    -0.389941   
O33      O      0.894180000000     0.231200000000     0.172710000000    -0.392106   
O34      O      0.768140000000     0.164340000000     0.120060000000    -0.392527   
O35      O      0.813160000000     0.182060000000     0.237540000000    -0.394862   
O36      O      0.847140000000     0.212390000000     0.054730000000    -0.385451   
O37      O      0.853080000000     0.153340000000     0.044260000000    -0.395134   
O38      O      0.819810000000     0.123280000000     0.227960000000    -0.393374   
O39      O      0.772170000000     0.104200000000     0.109870000000    -0.39039    
O40      O      0.898750000000     0.171380000000     0.162080000000    -0.394837   
O41      O      0.434850000000     0.497770000000     0.454020000000    -0.385409   
O42      O      0.560710000000     0.564600000000     0.506620000000    -0.39193    
O43      O      0.513650000000     0.545500000000     0.388440000000    -0.392895   
O44      O      0.479860000000     0.515530000000     0.571960000000    -0.390924   
O45      O      0.485770000000     0.456380000000     0.561900000000    -0.392695   
O46      O      0.519980000000     0.486570000000     0.378800000000    -0.394088   
O47      O      0.565060000000     0.504590000000     0.496920000000    -0.39412    
O48      O      0.438650000000     0.437660000000     0.443240000000    -0.392599   
O49      O      0.171470000000     0.273390000000     0.785700000000    -0.397837   
O50      O      0.103150000000     0.331150000000     0.838790000000    -0.389274   
O51      O      0.122740000000     0.303710000000     0.720390000000    -0.392073   
O52      O      0.152960000000     0.299860000000     0.903610000000    -0.380883   
O53      O      0.211270000000     0.365530000000     0.894160000000    -0.397579   
O54      O      0.181300000000     0.369210000000     0.710710000000    -0.391229   
O55      O      0.162640000000     0.395830000000     0.828650000000    -0.396197   
O56      O      0.230970000000     0.337920000000     0.776000000000    -0.379488   
O57      O      0.328880000000     0.101890000000     0.611930000000    -0.390421   
O58      O      0.271180000000     0.170360000000     0.665300000000    -0.395933   
O59      O      0.297070000000     0.151390000000     0.547360000000    -0.394111   
O60      O      0.301770000000     0.121790000000     0.730270000000    -0.394653   
O61      O      0.367180000000     0.180540000000     0.739600000000    -0.393253   
O62      O      0.362840000000     0.209760000000     0.555810000000    -0.393419   
O63      O      0.335860000000     0.230030000000     0.674040000000    -0.391209   
O64      O      0.393510000000     0.161490000000     0.621650000000    -0.396302   
O65      O      0.996300000000     0.436360000000     0.943970000000    -0.382665   
O66      O      0.938740000000     0.504670000000     0.997930000000    -0.39624    
O67      O      0.964310000000     0.485590000000     0.879480000000    -0.393226   
O68      O      0.969980000000     0.456530000000     0.062780000000    -0.391702   
O69      O      0.035620000000     0.515110000000     0.070840000000    -0.391914   
O70      O      0.029880000000     0.544250000000     0.887700000000    -0.394262   
O71      O      0.003330000000     0.564420000000     0.006630000000    -0.390117   
O72      O      0.060880000000     0.495950000000     0.952260000000    -0.398432   
O73      O      0.662380000000     0.769430000000     0.276540000000    -0.387312   
O74      O      0.605280000000     0.838300000000     0.330830000000    -0.397644   
O75      O      0.630800000000     0.819280000000     0.212310000000    -0.379776   
O76      O      0.635710000000     0.789470000000     0.395360000000    -0.39722    
O77      O      0.701330000000     0.847840000000     0.404220000000    -0.388435   
O78      O      0.696480000000     0.877630000000     0.221000000000    -0.39792    
O79      O      0.669960000000     0.897690000000     0.339800000000    -0.380592   
O80      O      0.727100000000     0.828960000000     0.285730000000    -0.394205   
O81      O      0.768240000000     0.662440000000     0.173060000000    -0.381158   
O82      O      0.837860000000     0.605920000000     0.120060000000    -0.393626   
O83      O      0.819200000000     0.632450000000     0.237830000000    -0.382585   
O84      O      0.787890000000     0.634820000000     0.054920000000    -0.382711   
O85      O      0.845870000000     0.700490000000     0.044110000000    -0.392854   
O86      O      0.876880000000     0.698460000000     0.227670000000    -0.396653   
O87      O      0.896800000000     0.670790000000     0.109660000000    -0.377896   
O88      O      0.827070000000     0.727310000000     0.161940000000    -0.398771   
O89      O      0.504220000000     0.938110000000     0.457430000000    -0.396259   
O90      O      0.435050000000     0.995140000000     0.509600000000    -0.382545   
O91      O      0.454850000000     0.967350000000     0.391560000000    -0.394608   
O92      O      0.485720000000     0.965270000000     0.575240000000    -0.395946   
O93      O      0.543940000000     0.030800000000     0.564170000000    -0.382414   
O94      O      0.512520000000     0.033370000000     0.381570000000    -0.391929   
O95      O      0.494150000000     0.059930000000     0.499540000000    -0.395875   
O96      O      0.563250000000     0.002970000000     0.445830000000    -0.389067   
O97      O      0.391700000000     0.232220000000     0.122070000000    -0.39855    
O98      O      0.333330000000     0.105770000000     0.174860000000    -0.388884   
O99      O      0.361590000000     0.153260000000     0.056650000000    -0.396877   
O100     O      0.364540000000     0.186690000000     0.239950000000    -0.396294   
O101     O      0.299300000000     0.180180000000     0.229450000000    -0.383936   
O102     O      0.296100000000     0.146230000000     0.046520000000    -0.389556   
O103     O      0.268960000000     0.101260000000     0.164480000000    -0.392956   
O104     O      0.327260000000     0.227250000000     0.111260000000    -0.381106   
O105     O      0.494440000000     0.433990000000     0.997640000000    -0.395608   
O106     O      0.563290000000     0.559890000000     0.943650000000    -0.380507   
O107     O      0.543240000000     0.513220000000     0.062450000000    -0.393071   
O108     O      0.513290000000     0.478730000000     0.879140000000    -0.380734   
O109     O      0.455030000000     0.486220000000     0.888190000000    -0.397912   
O110     O      0.485030000000     0.520770000000     0.071220000000    -0.39027    
O111     O      0.503990000000     0.565350000000     0.952770000000    -0.396079   
O112     O      0.435070000000     0.439460000000     0.006990000000    -0.392122   
O113     O      0.228830000000     0.894900000000     0.278030000000    -0.39301    
O114     O      0.163600000000     0.768140000000     0.329560000000    -0.390581   
O115     O      0.179970000000     0.813970000000     0.212470000000    -0.397398   
O116     O      0.211610000000     0.846820000000     0.395530000000    -0.385155   
O117     O      0.152290000000     0.852080000000     0.407930000000    -0.396324   
O118     O      0.120680000000     0.819340000000     0.224580000000    -0.380332   
O119     O      0.103240000000     0.771490000000     0.341970000000    -0.391271   
O120     O      0.168470000000     0.897960000000     0.290760000000    -0.386149   
O121     O      0.063270000000     0.564480000000     0.455240000000    -0.380532   
O122     O      0.003400000000     0.438270000000     0.507090000000    -0.39225    
O123     O      0.033120000000     0.485930000000     0.389420000000    -0.384638   
O124     O      0.034210000000     0.518860000000     0.572750000000    -0.393987   
O125     O      0.969320000000     0.512890000000     0.560350000000    -0.381864   
O126     O      0.967990000000     0.479470000000     0.377620000000    -0.396822   
O127     O      0.939200000000     0.433950000000     0.495210000000    -0.395067   
O128     O      0.999400000000     0.560460000000     0.442440000000    -0.39184    
O129     O      0.896200000000     0.226030000000     0.609900000000    -0.382601   
O130     O      0.827150000000     0.099990000000     0.662260000000    -0.39677    
O131     O      0.845900000000     0.145530000000     0.544370000000    -0.395589   
O132     O      0.876270000000     0.178630000000     0.728090000000    -0.39141    
O133     O      0.818620000000     0.187180000000     0.737330000000    -0.392385   
O134     O      0.787460000000     0.152520000000     0.554960000000    -0.382632   
O135     O      0.768080000000     0.105800000000     0.673550000000    -0.387492   
O136     O      0.837040000000     0.231720000000     0.618960000000    -0.398114   
O137     O      0.668770000000     0.772510000000     0.839860000000    -0.388777   
O138     O      0.725840000000     0.898670000000     0.786920000000    -0.399436   
O139     O      0.699610000000     0.853460000000     0.904850000000    -0.393483   
O140     O      0.696190000000     0.819800000000     0.721640000000    -0.392122   
O141     O      0.630560000000     0.812550000000     0.711740000000    -0.391092   
O142     O      0.633830000000     0.845890000000     0.895320000000    -0.393085   
O143     O      0.661130000000     0.893260000000     0.777200000000    -0.37991    
O144     O      0.603990000000     0.767100000000     0.829580000000    -0.395833   
O145     O      0.656900000000     0.961140000000     0.752560000000    -0.278593   
O146     O      0.968270000000     0.293140000000     0.583710000000    -0.279559   
O147     O      0.130260000000     0.625990000000     0.408880000000    -0.278647   
O148     O      0.635220000000     0.627370000000     0.916600000000    -0.278437   
O149     O      0.162920000000     0.960860000000     0.250830000000    -0.281483   
O150     O      0.323400000000     0.295060000000     0.085370000000    -0.281939   
O151     O      0.745370000000     0.841240000000     0.499260000000    -0.286162   
O152     O      0.586280000000     0.825520000000     0.118820000000    -0.280438   
O153     O      0.696150000000     0.657780000000     0.200400000000    -0.276567   
O154     O      0.674170000000     0.969690000000     0.365170000000    -0.279167   
O155     O      0.921510000000     0.485440000000     0.659070000000    -0.281463   
O156     O      0.080210000000     0.512570000000     0.289640000000    -0.287041   
O157     O      0.968990000000     0.675530000000     0.083720000000    -0.277624   
O158     O      0.252570000000     0.094480000000     0.952210000000    -0.28574    
O159     O      0.252630000000     0.153440000000     0.329000000000    -0.282518   
O160     O      0.363000000000     0.990520000000     0.536180000000    -0.281163   
O161     O      0.991950000000     0.364620000000     0.916560000000    -0.281376   
O162     O      0.302720000000     0.341840000000     0.750230000000    -0.280119   
O163     O      0.506440000000     0.428120000000     0.784760000000    -0.282031   
O164     O      0.492090000000     0.572180000000     0.165240000000    -0.282747   
O165     O      0.823690000000     0.235480000000     0.955340000000    -0.281619   
O166     O      0.767270000000     0.179350000000     0.456150000000    -0.280475   
O167     O      0.095010000000     0.255190000000     0.497650000000    -0.28533    
O168     O      0.160560000000     0.256000000000     0.997180000000    -0.282606   
O169     O      0.038830000000     0.341880000000     0.249380000000    -0.281306   
O170     O      0.373560000000     0.503280000000     0.408030000000    -0.279899   
O171     O      0.562820000000     0.077970000000     0.663050000000    -0.279749   
O172     O      0.502610000000     0.076420000000     0.287860000000    -0.285522   
O173     O      0.625080000000     0.129090000000     0.043890000000    -0.278613   
O174     O      0.232070000000     0.819280000000     0.494370000000    -0.281382   
O175     O      0.100520000000     0.846510000000     0.124880000000    -0.279406   
O176     O      0.370920000000     0.868040000000     0.918110000000    -0.281891   
O177     O      0.765800000000     0.588190000000     0.955460000000    -0.282798   
O178     O      0.827780000000     0.589310000000     0.331240000000    -0.282122   
O179     O      0.705650000000     0.675540000000     0.582160000000    -0.279517   
O180     O      0.037200000000     0.696440000000     0.753280000000    -0.278537   


