data_structure

_audit_creation_method RASPA-1.0
_audit_creation_date 2023-5-19
_audit_author_name 'Poobodin Mano'

_cell_length_a    43.2617
_cell_length_b    43.2587
_cell_length_c    43.2505
_cell_angle_alpha 90
_cell_angle_beta  90
_cell_angle_gamma 90
_cell_volume      80940.9

_symmetry_cell_setting          triclinic
_symmetry_space_group_name_Hall 'P 1'
_symmetry_space_group_name_H-M  'P 1'
_symmetry_Int_Tables_number     1

_symmetry_equiv_pos_as_xyz 'x,y,z'

loop_
_atom_site_label
_atom_site_type_symbol
_atom_site_fract_x
_atom_site_fract_y
_atom_site_fract_z
_atom_site_charge
C1       C      0.499830000000     0.060410000000     0.248570000000     0.403074   
C2       C      0.999100000000     0.437530000000     0.250800000000     0.420871   
C3       C      0.437960000000     0.999130000000     0.251300000000     0.397472   
C4       C      0.060790000000     0.498090000000     0.247920000000     0.41724    
C5       C      0.999870000000     0.187540000000     0.247280000000     0.410993   
C6       C      0.998550000000     0.310350000000     0.250630000000     0.399888   
C7       C      0.001680000000     0.250870000000     0.187360000000     0.40616    
C8       C      0.996300000000     0.246400000000     0.310160000000     0.397935   
C9       C      0.310670000000     0.998520000000     0.251160000000     0.409392   
C10      C      0.188050000000     0.998180000000     0.248420000000     0.398516   
C11      C      0.250530000000     0.998530000000     0.188620000000     0.397428   
C12      C      0.248200000000     0.998490000000     0.311290000000     0.397818   
C13      C      0.249090000000     0.061010000000     0.998440000000     0.40042    
C14      C      0.247600000000     0.438350000000     0.501490000000     0.402178   
C15      C      0.249020000000     0.000160000000     0.061290000000     0.422819   
C16      C      0.247880000000     0.498940000000     0.438670000000     0.415125   
C17      C      0.501880000000     0.251330000000     0.060020000000     0.422836   
C18      C      0.996140000000     0.246150000000     0.437320000000     0.420838   
C19      C      0.437890000000     0.249830000000     0.001100000000     0.419069   
C20      C      0.060660000000     0.247810000000     0.496820000000     0.423719   
C21      C      0.250020000000     0.188350000000     0.997340000000     0.414204   
C22      C      0.247830000000     0.311130000000     0.001750000000     0.417837   
C23      C      0.187820000000     0.248880000000     0.998320000000     0.401334   
C24      C      0.310730000000     0.250590000000     0.000720000000     0.404886   
C25      C      0.358490000000     0.269710000000     0.481930000000     0.0262452  
C26      C      0.357870000000     0.231770000000     0.021210000000    -0.031618   
C27      C      0.390720000000     0.270600000000     0.483330000000     0.0411819  
C28      C      0.390200000000     0.230520000000     0.020590000000     0.205479   
C29      C      0.140430000000     0.263290000000     0.474930000000     0.0245543  
C30      C      0.140360000000     0.232890000000     0.020300000000    -0.0289269  
C31      C      0.108160000000     0.264150000000     0.475510000000     0.0413415  
C32      C      0.108090000000     0.231110000000     0.019140000000     0.208218   
C33      C      0.267190000000     0.390820000000     0.020700000000     0.0242672  
C34      C      0.226230000000     0.390920000000     0.984610000000    -0.032234   
C35      C      0.265940000000     0.358550000000     0.022010000000     0.0395472  
C36      C      0.226740000000     0.358630000000     0.983840000000     0.205265   
C37      C      0.228980000000     0.108960000000     0.015340000000     0.0260438  
C38      C      0.269620000000     0.108060000000     0.978900000000    -0.0318835  
C39      C      0.230150000000     0.141150000000     0.015810000000     0.0407828  
C40      C      0.269050000000     0.140450000000     0.977360000000     0.204813   
C41      C      0.265300000000     0.477760000000     0.359060000000     0.0253496  
C42      C      0.230430000000     0.019750000000     0.358570000000    -0.0277197  
C43      C      0.266240000000     0.478930000000     0.391300000000     0.0397975  
C44      C      0.229380000000     0.019350000000     0.390900000000     0.208587   
C45      C      0.267900000000     0.019560000000     0.141030000000     0.0268001  
C46      C      0.232710000000     0.477830000000     0.141170000000    -0.0315129  
C47      C      0.268420000000     0.018990000000     0.108750000000     0.0420616  
C48      C      0.231210000000     0.478880000000     0.108880000000     0.204517   
C49      C      0.015690000000     0.227430000000     0.357750000000     0.0258319  
C50      C      0.473200000000     0.261700000000     0.357430000000    -0.0318636  
C51      C      0.014500000000     0.226200000000     0.390000000000     0.0424584  
C52      C      0.473950000000     0.262930000000     0.389770000000     0.206479   
C53      C      0.481600000000     0.234000000000     0.139570000000     0.0248929  
C54      C      0.523590000000     0.268870000000     0.140120000000    -0.0293751  
C55      C      0.482340000000     0.233510000000     0.107440000000     0.0401668  
C56      C      0.522460000000     0.270670000000     0.107680000000     0.206535   
C57      C      0.140490000000     0.017940000000     0.229330000000     0.0291421  
C58      C      0.140620000000     0.477090000000     0.265560000000    -0.0304807  
C59      C      0.108220000000     0.016580000000     0.227960000000     0.0436752  
C60      C      0.108330000000     0.477480000000     0.266240000000     0.206876   
C61      C      0.390280000000     0.015480000000     0.273170000000     0.0274904  
C62      C      0.390680000000     0.481470000000     0.230460000000    -0.0322515  
C63      C      0.357980000000     0.016540000000     0.271880000000     0.0418022  
C64      C      0.358420000000     0.480440000000     0.230760000000     0.204455   
C65      C      0.479300000000     0.358010000000     0.231820000000     0.0246852  
C66      C      0.517660000000     0.357550000000     0.270680000000    -0.0313557  
C67      C      0.480760000000     0.390240000000     0.230810000000     0.040211   
C68      C      0.516820000000     0.389870000000     0.271970000000     0.204381   
C69      C      0.481340000000     0.107750000000     0.228170000000     0.0249388  
C70      C      0.018960000000     0.107930000000     0.267770000000    -0.0310128  
C71      C      0.480320000000     0.140000000000     0.229030000000     0.0406689  
C72      C      0.020070000000     0.140230000000     0.266640000000     0.206332   
C73      C      0.499830000000     0.060410000000     0.748570000000     0.403074   
C74      C      0.999100000000     0.437530000000     0.750800000000     0.420875   
C75      C      0.437960000000     0.999130000000     0.751300000000     0.397463   
C76      C      0.060790000000     0.498090000000     0.747920000000     0.417243   
C77      C      0.999870000000     0.187540000000     0.747280000000     0.410994   
C78      C      0.998550000000     0.310350000000     0.750630000000     0.39983    
C79      C      0.001680000000     0.250870000000     0.687360000000     0.406155   
C80      C      0.996300000000     0.246400000000     0.810160000000     0.397991   
C81      C      0.310670000000     0.998520000000     0.751160000000     0.40938    
C82      C      0.188050000000     0.998180000000     0.748420000000     0.398502   
C83      C      0.250530000000     0.998530000000     0.688620000000     0.39741    
C84      C      0.248200000000     0.998490000000     0.811290000000     0.397805   
C85      C      0.249090000000     0.061010000000     0.498440000000     0.401886   
C86      C      0.247600000000     0.438350000000     0.001490000000     0.403698   
C87      C      0.249020000000     0.000160000000     0.561280000000     0.422961   
C88      C      0.247880000000     0.498940000000     0.938670000000     0.415227   
C89      C      0.501880000000     0.251330000000     0.560020000000     0.42291    
C90      C      0.996140000000     0.246150000000     0.937320000000     0.420841   
C91      C      0.437890000000     0.249830000000     0.501100000000     0.419056   
C92      C      0.060660000000     0.247810000000     0.996820000000     0.422206   
C93      C      0.250020000000     0.188350000000     0.497340000000     0.415419   
C94      C      0.247830000000     0.311130000000     0.501750000000     0.416274   
C95      C      0.187820000000     0.248880000000     0.498320000000     0.402766   
C96      C      0.310730000000     0.250590000000     0.500720000000     0.403089   
C97      C      0.358490000000     0.269710000000     0.981930000000     0.025485   
C98      C      0.357870000000     0.231770000000     0.521210000000    -0.0318603  
C99      C      0.390720000000     0.270600000000     0.983330000000     0.0401441  
C100     C      0.390200000000     0.230520000000     0.520590000000     0.205303   
C101     C      0.140430000000     0.263290000000     0.974940000000     0.0243911  
C102     C      0.140360000000     0.232890000000     0.520300000000    -0.02983    
C103     C      0.108160000000     0.264150000000     0.975520000000     0.0411647  
C104     C      0.108090000000     0.231110000000     0.519140000000     0.207406   
C105     C      0.267190000000     0.390820000000     0.520700000000     0.0240422  
C106     C      0.226230000000     0.390920000000     0.484610000000    -0.0313907  
C107     C      0.265940000000     0.358550000000     0.522010000000     0.0392463  
C108     C      0.226740000000     0.358630000000     0.483840000000     0.206129   
C109     C      0.228980000000     0.108960000000     0.515340000000     0.0251533  
C110     C      0.269620000000     0.108060000000     0.478900000000    -0.0316619  
C111     C      0.230150000000     0.141150000000     0.515810000000     0.0398811  
C112     C      0.269050000000     0.140450000000     0.477360000000     0.205027   
C113     C      0.265300000000     0.477760000000     0.859060000000     0.0253276  
C114     C      0.230430000000     0.019750000000     0.858570000000    -0.0277429  
C115     C      0.266240000000     0.478930000000     0.891300000000     0.0397701  
C116     C      0.229380000000     0.019350000000     0.890900000000     0.208587   
C117     C      0.267900000000     0.019560000000     0.641030000000     0.0267819  
C118     C      0.232710000000     0.477830000000     0.641170000000    -0.0315272  
C119     C      0.268420000000     0.018990000000     0.608750000000     0.042039   
C120     C      0.231210000000     0.478880000000     0.608880000000     0.204477   
C121     C      0.015690000000     0.227430000000     0.857750000000     0.0258071  
C122     C      0.473200000000     0.261700000000     0.857430000000    -0.0318371  
C123     C      0.014500000000     0.226200000000     0.890000000000     0.0424367  
C124     C      0.473950000000     0.262930000000     0.889780000000     0.206503   
C125     C      0.481600000000     0.234000000000     0.639570000000     0.0248766  
C126     C      0.523590000000     0.268870000000     0.640120000000    -0.0293966  
C127     C      0.482340000000     0.233510000000     0.607440000000     0.0401409  
C128     C      0.522460000000     0.270670000000     0.607680000000     0.206514   
C129     C      0.140490000000     0.017940000000     0.729330000000     0.0291379  
C130     C      0.140620000000     0.477090000000     0.765560000000    -0.0304914  
C131     C      0.108220000000     0.016580000000     0.727960000000     0.043669   
C132     C      0.108330000000     0.477480000000     0.766240000000     0.206865   
C133     C      0.390280000000     0.015480000000     0.773170000000     0.0274868  
C134     C      0.390680000000     0.481470000000     0.730460000000    -0.0322609  
C135     C      0.357980000000     0.016540000000     0.771880000000     0.0417981  
C136     C      0.358420000000     0.480440000000     0.730760000000     0.204442   
C137     C      0.479300000000     0.358010000000     0.731820000000     0.0246175  
C138     C      0.517660000000     0.357550000000     0.770680000000    -0.0312746  
C139     C      0.480760000000     0.390240000000     0.730810000000     0.0402199  
C140     C      0.516820000000     0.389870000000     0.771970000000     0.204337   
C141     C      0.481340000000     0.107750000000     0.728170000000     0.0249502  
C142     C      0.018960000000     0.107930000000     0.767770000000    -0.0310479  
C143     C      0.480320000000     0.140000000000     0.729030000000     0.0406059  
C144     C      0.020070000000     0.140230000000     0.766640000000     0.206384   
C145     C      0.499830000000     0.560410000000     0.248570000000     0.403982   
C146     C      0.999100000000     0.937530000000     0.250800000000     0.420431   
C147     C      0.437960000000     0.499130000000     0.251300000000     0.403151   
C148     C      0.060790000000     0.998090000000     0.247920000000     0.411572   
C149     C      0.999870000000     0.687540000000     0.247280000000     0.411029   
C150     C      0.998550000000     0.810350000000     0.250630000000     0.399833   
C151     C      0.001680000000     0.750870000000     0.187360000000     0.40615    
C152     C      0.996300000000     0.746400000000     0.310160000000     0.397932   
C153     C      0.310670000000     0.498520000000     0.251160000000     0.414345   
C154     C      0.188050000000     0.498180000000     0.248420000000     0.403487   
C155     C      0.250530000000     0.498530000000     0.188620000000     0.402396   
C156     C      0.248200000000     0.498490000000     0.311290000000     0.402794   
C157     C      0.249090000000     0.561010000000     0.998440000000     0.400609   
C158     C      0.247600000000     0.938350000000     0.501490000000     0.402366   
C159     C      0.249020000000     0.500160000000     0.061290000000     0.414314   
C160     C      0.247880000000     0.998940000000     0.438670000000     0.410157   
C161     C      0.501880000000     0.751330000000     0.060020000000     0.422845   
C162     C      0.996140000000     0.746150000000     0.437320000000     0.420845   
C163     C      0.437890000000     0.749840000000     0.001100000000     0.419087   
C164     C      0.060660000000     0.747810000000     0.496820000000     0.423726   
C165     C      0.250020000000     0.688340000000     0.997340000000     0.414102   
C166     C      0.247830000000     0.811130000000     0.001750000000     0.417842   
C167     C      0.187820000000     0.748880000000     0.998320000000     0.401313   
C168     C      0.310730000000     0.750600000000     0.000720000000     0.404884   
C169     C      0.358490000000     0.769710000000     0.481930000000     0.0261518  
C170     C      0.357870000000     0.731770000000     0.021210000000    -0.0316532  
C171     C      0.390720000000     0.770590000000     0.483330000000     0.0412444  
C172     C      0.390200000000     0.730520000000     0.020590000000     0.205459   
C173     C      0.140430000000     0.763290000000     0.474930000000     0.0245245  
C174     C      0.140360000000     0.732890000000     0.020300000000    -0.0289386  
C175     C      0.108160000000     0.764150000000     0.475510000000     0.0413003  
C176     C      0.108090000000     0.731110000000     0.019140000000     0.208157   
C177     C      0.267190000000     0.890820000000     0.020700000000     0.0241786  
C178     C      0.226230000000     0.890920000000     0.984610000000    -0.0322715  
C179     C      0.265940000000     0.858540000000     0.022010000000     0.0395266  
C180     C      0.226740000000     0.858630000000     0.983840000000     0.205175   
C181     C      0.228980000000     0.608960000000     0.015340000000     0.0259534  
C182     C      0.269620000000     0.608060000000     0.978900000000    -0.0319568  
C183     C      0.230150000000     0.641140000000     0.015810000000     0.0406868  
C184     C      0.269050000000     0.640450000000     0.977360000000     0.20471    
C185     C      0.265300000000     0.977760000000     0.359060000000     0.0246158  
C186     C      0.230430000000     0.519750000000     0.358570000000    -0.0308005  
C187     C      0.266240000000     0.978930000000     0.391300000000     0.039016   
C188     C      0.229380000000     0.519350000000     0.390900000000     0.20586    
C189     C      0.267900000000     0.519560000000     0.141030000000     0.0239711  
C190     C      0.232710000000     0.977830000000     0.141170000000    -0.0325638  
C191     C      0.268420000000     0.518990000000     0.108750000000     0.0385454  
C192     C      0.231210000000     0.978880000000     0.108880000000     0.204344   
C193     C      0.015690000000     0.727430000000     0.357750000000     0.0257904  
C194     C      0.473200000000     0.761700000000     0.357430000000    -0.0318918  
C195     C      0.014500000000     0.726200000000     0.390000000000     0.0424064  
C196     C      0.473950000000     0.762930000000     0.389770000000     0.206438   
C197     C      0.481600000000     0.734000000000     0.139570000000     0.0249101  
C198     C      0.523590000000     0.768860000000     0.140120000000    -0.0293562  
C199     C      0.482340000000     0.733510000000     0.107440000000     0.0400979  
C200     C      0.522460000000     0.770670000000     0.107680000000     0.206469   
C201     C      0.140490000000     0.517940000000     0.229330000000     0.0261141  
C202     C      0.140620000000     0.977090000000     0.265560000000    -0.0312366  
C203     C      0.108220000000     0.516580000000     0.227960000000     0.0406777  
C204     C      0.108330000000     0.977480000000     0.266240000000     0.206205   
C205     C      0.390280000000     0.515480000000     0.273170000000     0.0244522  
C206     C      0.390680000000     0.981470000000     0.230460000000    -0.0330096  
C207     C      0.357980000000     0.516540000000     0.271880000000     0.0387895  
C208     C      0.358420000000     0.980440000000     0.230760000000     0.203785   
C209     C      0.479300000000     0.858010000000     0.231820000000     0.0246423  
C210     C      0.517660000000     0.857550000000     0.270680000000    -0.031428   
C211     C      0.480760000000     0.890230000000     0.230810000000     0.0400691  
C212     C      0.516820000000     0.889870000000     0.271970000000     0.204357   
C213     C      0.481340000000     0.607750000000     0.228170000000     0.0248441  
C214     C      0.018960000000     0.607930000000     0.267770000000    -0.0310735  
C215     C      0.480320000000     0.640000000000     0.229030000000     0.0405295  
C216     C      0.020070000000     0.640230000000     0.266640000000     0.206199   
C217     C      0.499830000000     0.560410000000     0.748570000000     0.403984   
C218     C      0.999100000000     0.937530000000     0.750800000000     0.420434   
C219     C      0.437960000000     0.499130000000     0.751300000000     0.403153   
C220     C      0.060790000000     0.998090000000     0.747920000000     0.411561   
C221     C      0.999870000000     0.687540000000     0.747280000000     0.411029   
C222     C      0.998550000000     0.810350000000     0.750630000000     0.399775   
C223     C      0.001680000000     0.750870000000     0.687360000000     0.406144   
C224     C      0.996300000000     0.746400000000     0.810160000000     0.397988   
C225     C      0.310670000000     0.498520000000     0.751160000000     0.414343   
C226     C      0.188050000000     0.498180000000     0.748420000000     0.403484   
C227     C      0.250530000000     0.498530000000     0.688620000000     0.402391   
C228     C      0.248200000000     0.498490000000     0.811290000000     0.402788   
C229     C      0.249090000000     0.561010000000     0.498440000000     0.40209    
C230     C      0.247600000000     0.938350000000     0.001490000000     0.403894   
C231     C      0.249020000000     0.500160000000     0.561280000000     0.414418   
C232     C      0.247880000000     0.998940000000     0.938670000000     0.410253   
C233     C      0.501880000000     0.751330000000     0.560020000000     0.42292    
C234     C      0.996140000000     0.746150000000     0.937320000000     0.420848   
C235     C      0.437890000000     0.749840000000     0.501100000000     0.419074   
C236     C      0.060660000000     0.747810000000     0.996820000000     0.422202   
C237     C      0.250020000000     0.688340000000     0.497340000000     0.415327   
C238     C      0.247830000000     0.811130000000     0.501750000000     0.416267   
C239     C      0.187820000000     0.748880000000     0.498320000000     0.402755   
C240     C      0.310730000000     0.750600000000     0.500720000000     0.403075   
C241     C      0.358490000000     0.769710000000     0.981930000000     0.0253861  
C242     C      0.357870000000     0.731770000000     0.521210000000    -0.0318979  
C243     C      0.390720000000     0.770590000000     0.983330000000     0.0401996  
C244     C      0.390200000000     0.730520000000     0.520590000000     0.205281   
C245     C      0.140430000000     0.763290000000     0.974940000000     0.0243601  
C246     C      0.140360000000     0.732890000000     0.520300000000    -0.0298485  
C247     C      0.108160000000     0.764150000000     0.975520000000     0.0411223  
C248     C      0.108090000000     0.731110000000     0.519140000000     0.207339   
C249     C      0.267190000000     0.890820000000     0.520700000000     0.0239514  
C250     C      0.226230000000     0.890920000000     0.484610000000    -0.0314225  
C251     C      0.265940000000     0.858540000000     0.522010000000     0.0392237  
C252     C      0.226740000000     0.858630000000     0.483840000000     0.206044   
C253     C      0.228980000000     0.608960000000     0.515340000000     0.0250534  
C254     C      0.269620000000     0.608060000000     0.478900000000    -0.0317335  
C255     C      0.230150000000     0.641140000000     0.515810000000     0.0397782  
C256     C      0.269050000000     0.640450000000     0.477360000000     0.204926   
C257     C      0.265300000000     0.977760000000     0.859060000000     0.0245929  
C258     C      0.230430000000     0.519750000000     0.858570000000    -0.0308285  
C259     C      0.266240000000     0.978930000000     0.891300000000     0.0389878  
C260     C      0.229380000000     0.519350000000     0.890900000000     0.205858   
C261     C      0.267900000000     0.519560000000     0.641030000000     0.023945   
C262     C      0.232710000000     0.977830000000     0.641170000000    -0.0325815  
C263     C      0.268420000000     0.518990000000     0.608750000000     0.0385084  
C264     C      0.231210000000     0.978880000000     0.608880000000     0.204303   
C265     C      0.015690000000     0.727430000000     0.857750000000     0.0257653  
C266     C      0.473200000000     0.761700000000     0.857430000000    -0.0318654  
C267     C      0.014500000000     0.726200000000     0.890000000000     0.0423844  
C268     C      0.473950000000     0.762930000000     0.889780000000     0.206462   
C269     C      0.481600000000     0.734000000000     0.639570000000     0.0248936  
C270     C      0.523590000000     0.768860000000     0.640120000000    -0.0293779  
C271     C      0.482340000000     0.733510000000     0.607440000000     0.0400718  
C272     C      0.522460000000     0.770670000000     0.607680000000     0.206448   
C273     C      0.140490000000     0.517940000000     0.729330000000     0.0261032  
C274     C      0.140620000000     0.977090000000     0.765560000000    -0.0312487  
C275     C      0.108220000000     0.516580000000     0.727960000000     0.0406649  
C276     C      0.108330000000     0.977480000000     0.766240000000     0.206193   
C277     C      0.390280000000     0.515480000000     0.773170000000     0.0244423  
C278     C      0.390680000000     0.981470000000     0.730460000000    -0.0330205  
C279     C      0.357980000000     0.516540000000     0.771880000000     0.038779   
C280     C      0.358420000000     0.980440000000     0.730760000000     0.203771   
C281     C      0.479300000000     0.858010000000     0.731820000000     0.0245745  
C282     C      0.517660000000     0.857550000000     0.770680000000    -0.031347   
C283     C      0.480760000000     0.890230000000     0.730810000000     0.0400778  
C284     C      0.516820000000     0.889870000000     0.771970000000     0.204313   
C285     C      0.481340000000     0.607750000000     0.728170000000     0.0248552  
C286     C      0.018960000000     0.607930000000     0.767770000000    -0.0311089  
C287     C      0.480320000000     0.640000000000     0.729030000000     0.040466   
C288     C      0.020070000000     0.640230000000     0.766640000000     0.206251   
C289     C      0.999840000000     0.060410000000     0.248570000000     0.397537   
C290     C      0.499100000000     0.437530000000     0.250800000000     0.420919   
C291     C      0.937960000000     0.999130000000     0.251300000000     0.397762   
C292     C      0.560790000000     0.498090000000     0.247920000000     0.417221   
C293     C      0.499870000000     0.187540000000     0.247280000000     0.416848   
C294     C      0.498540000000     0.310350000000     0.250630000000     0.403221   
C295     C      0.501680000000     0.250870000000     0.187360000000     0.40272    
C296     C      0.496300000000     0.246400000000     0.310160000000     0.401238   
C297     C      0.810670000000     0.998520000000     0.251160000000     0.409393   
C298     C      0.688050000000     0.998180000000     0.248420000000     0.3985     
C299     C      0.750530000000     0.998530000000     0.188620000000     0.397423   
C300     C      0.748200000000     0.998490000000     0.311290000000     0.397762   
C301     C      0.749090000000     0.061010000000     0.998440000000     0.400196   
C302     C      0.747600000000     0.438350000000     0.501490000000     0.402189   
C303     C      0.749020000000     0.000160000000     0.061290000000     0.42282    
C304     C      0.747890000000     0.498940000000     0.438670000000     0.415364   
C305     C      0.001880000000     0.251330000000     0.060020000000     0.425846   
C306     C      0.496140000000     0.246150000000     0.437320000000     0.421271   
C307     C      0.937890000000     0.249830000000     0.001100000000     0.418848   
C308     C      0.560660000000     0.247810000000     0.496820000000     0.424209   
C309     C      0.750020000000     0.188350000000     0.997340000000     0.414206   
C310     C      0.747830000000     0.311130000000     0.001750000000     0.417839   
C311     C      0.687820000000     0.248880000000     0.998320000000     0.40135    
C312     C      0.810730000000     0.250590000000     0.000720000000     0.404777   
C313     C      0.858490000000     0.269710000000     0.481930000000     0.0262105  
C314     C      0.857870000000     0.231770000000     0.021210000000    -0.031653   
C315     C      0.890730000000     0.270600000000     0.483330000000     0.0411442  
C316     C      0.890200000000     0.230520000000     0.020590000000     0.205408   
C317     C      0.640430000000     0.263290000000     0.474930000000     0.0244807  
C318     C      0.640360000000     0.232890000000     0.020300000000    -0.0289854  
C319     C      0.608160000000     0.264150000000     0.475510000000     0.0412714  
C320     C      0.608090000000     0.231110000000     0.019140000000     0.208168   
C321     C      0.767190000000     0.390820000000     0.020700000000     0.0242559  
C322     C      0.726230000000     0.390920000000     0.984610000000    -0.0322126  
C323     C      0.765940000000     0.358550000000     0.022010000000     0.0395047  
C324     C      0.726740000000     0.358630000000     0.983840000000     0.205218   
C325     C      0.728980000000     0.108960000000     0.015340000000     0.0259665  
C326     C      0.769620000000     0.108060000000     0.978900000000    -0.031918   
C327     C      0.730160000000     0.141150000000     0.015810000000     0.0408425  
C328     C      0.769050000000     0.140450000000     0.977360000000     0.204801   
C329     C      0.765300000000     0.477760000000     0.359060000000     0.0253214  
C330     C      0.730430000000     0.019750000000     0.358570000000    -0.0277553  
C331     C      0.766240000000     0.478930000000     0.391300000000     0.0397729  
C332     C      0.729380000000     0.019350000000     0.390900000000     0.20858    
C333     C      0.767900000000     0.019560000000     0.141030000000     0.0267761  
C334     C      0.732710000000     0.477830000000     0.141170000000    -0.0315414  
C335     C      0.768420000000     0.018990000000     0.108750000000     0.0420359  
C336     C      0.731210000000     0.478880000000     0.108880000000     0.204492   
C337     C      0.515690000000     0.227430000000     0.357750000000     0.0239417  
C338     C      0.973200000000     0.261700000000     0.357430000000    -0.0322799  
C339     C      0.514500000000     0.226200000000     0.390000000000     0.0401366  
C340     C      0.973950000000     0.262930000000     0.389770000000     0.205868   
C341     C      0.981600000000     0.234000000000     0.139570000000     0.0229877  
C342     C      0.023600000000     0.268870000000     0.140120000000    -0.0288915  
C343     C      0.982340000000     0.233510000000     0.107440000000     0.0382367  
C344     C      0.022460000000     0.270670000000     0.107680000000     0.207095   
C345     C      0.640490000000     0.017940000000     0.229330000000     0.0290759  
C346     C      0.640620000000     0.477090000000     0.265560000000    -0.0305161  
C347     C      0.608220000000     0.016580000000     0.227960000000     0.0435953  
C348     C      0.608330000000     0.477480000000     0.266240000000     0.206767   
C349     C      0.890280000000     0.015480000000     0.273170000000     0.0274529  
C350     C      0.890680000000     0.481470000000     0.230460000000    -0.0322716  
C351     C      0.857980000000     0.016540000000     0.271880000000     0.0417312  
C352     C      0.858420000000     0.480440000000     0.230760000000     0.204418   
C353     C      0.979300000000     0.358010000000     0.231820000000     0.0241292  
C354     C      0.017660000000     0.357550000000     0.270680000000    -0.0294369  
C355     C      0.980760000000     0.390240000000     0.230810000000     0.0398457  
C356     C      0.016820000000     0.389870000000     0.271970000000     0.206526   
C357     C      0.981340000000     0.107750000000     0.228170000000     0.0228161  
C358     C      0.518960000000     0.107930000000     0.267770000000    -0.0313041  
C359     C      0.980320000000     0.140000000000     0.229030000000     0.0385125  
C360     C      0.520070000000     0.140230000000     0.266640000000     0.205937   
C361     C      0.999840000000     0.060410000000     0.748570000000     0.397538   
C362     C      0.499100000000     0.437530000000     0.750800000000     0.420923   
C363     C      0.937960000000     0.999130000000     0.751300000000     0.397753   
C364     C      0.560790000000     0.498090000000     0.747920000000     0.417223   
C365     C      0.499870000000     0.187540000000     0.747280000000     0.416848   
C366     C      0.498540000000     0.310350000000     0.750630000000     0.403162   
C367     C      0.501680000000     0.250870000000     0.687360000000     0.402712   
C368     C      0.496300000000     0.246400000000     0.810160000000     0.401293   
C369     C      0.810670000000     0.998520000000     0.751160000000     0.409381   
C370     C      0.688050000000     0.998180000000     0.748420000000     0.398486   
C371     C      0.750530000000     0.998530000000     0.688620000000     0.397406   
C372     C      0.748200000000     0.998490000000     0.811290000000     0.397748   
C373     C      0.749090000000     0.061010000000     0.498440000000     0.401661   
C374     C      0.747600000000     0.438350000000     0.001490000000     0.40371    
C375     C      0.749020000000     0.000160000000     0.561280000000     0.422962   
C376     C      0.747890000000     0.498940000000     0.938670000000     0.415466   
C377     C      0.001880000000     0.251330000000     0.560020000000     0.425928   
C378     C      0.496140000000     0.246150000000     0.937320000000     0.421274   
C379     C      0.937890000000     0.249830000000     0.501100000000     0.418834   
C380     C      0.560660000000     0.247810000000     0.996820000000     0.422691   
C381     C      0.750020000000     0.188350000000     0.497340000000     0.41542    
C382     C      0.747830000000     0.311130000000     0.501750000000     0.416275   
C383     C      0.687820000000     0.248880000000     0.498320000000     0.402782   
C384     C      0.810730000000     0.250590000000     0.500720000000     0.402981   
C385     C      0.858490000000     0.269710000000     0.981930000000     0.0254513  
C386     C      0.857870000000     0.231770000000     0.521210000000    -0.0318952  
C387     C      0.890730000000     0.270600000000     0.983330000000     0.0401085  
C388     C      0.890200000000     0.230520000000     0.520590000000     0.205232   
C389     C      0.640430000000     0.263290000000     0.974940000000     0.0243178  
C390     C      0.640360000000     0.232890000000     0.520300000000    -0.02989    
C391     C      0.608160000000     0.264150000000     0.975520000000     0.0410946  
C392     C      0.608090000000     0.231110000000     0.519140000000     0.207355   
C393     C      0.767190000000     0.390820000000     0.520700000000     0.0240306  
C394     C      0.726230000000     0.390920000000     0.484610000000    -0.0313697  
C395     C      0.765940000000     0.358550000000     0.522010000000     0.0392034  
C396     C      0.726740000000     0.358630000000     0.483840000000     0.206081   
C397     C      0.728980000000     0.108960000000     0.515340000000     0.0250756  
C398     C      0.769620000000     0.108060000000     0.478900000000    -0.0316966  
C399     C      0.730160000000     0.141150000000     0.515810000000     0.03994    
C400     C      0.769050000000     0.140450000000     0.477360000000     0.205015   
C401     C      0.765300000000     0.477760000000     0.859060000000     0.0252994  
C402     C      0.730430000000     0.019750000000     0.858570000000    -0.0277785  
C403     C      0.766240000000     0.478930000000     0.891300000000     0.0397456  
C404     C      0.729380000000     0.019350000000     0.890900000000     0.20858    
C405     C      0.767900000000     0.019560000000     0.641030000000     0.0267579  
C406     C      0.732710000000     0.477830000000     0.641170000000    -0.0315558  
C407     C      0.768420000000     0.018990000000     0.608750000000     0.0420132  
C408     C      0.731210000000     0.478880000000     0.608880000000     0.204451   
C409     C      0.515690000000     0.227430000000     0.857750000000     0.0239184  
C410     C      0.973200000000     0.261700000000     0.857430000000    -0.0322529  
C411     C      0.514500000000     0.226200000000     0.890000000000     0.0401194  
C412     C      0.973950000000     0.262930000000     0.889780000000     0.205893   
C413     C      0.981600000000     0.234000000000     0.639570000000     0.0229697  
C414     C      0.023600000000     0.268870000000     0.640120000000    -0.0289121  
C415     C      0.982340000000     0.233510000000     0.607440000000     0.0382068  
C416     C      0.022460000000     0.270670000000     0.607680000000     0.207075   
C417     C      0.640490000000     0.017940000000     0.729330000000     0.0290717  
C418     C      0.640620000000     0.477090000000     0.765560000000    -0.0305268  
C419     C      0.608220000000     0.016580000000     0.727960000000     0.0435891  
C420     C      0.608330000000     0.477480000000     0.766240000000     0.206756   
C421     C      0.890280000000     0.015480000000     0.773170000000     0.0274494  
C422     C      0.890680000000     0.481470000000     0.730460000000    -0.0322809  
C423     C      0.857980000000     0.016540000000     0.771880000000     0.0417272  
C424     C      0.858420000000     0.480440000000     0.730760000000     0.204406   
C425     C      0.979300000000     0.358010000000     0.731820000000     0.0240616  
C426     C      0.017660000000     0.357550000000     0.770680000000    -0.0293554  
C427     C      0.980760000000     0.390240000000     0.730810000000     0.0398546  
C428     C      0.016820000000     0.389870000000     0.771970000000     0.206482   
C429     C      0.981340000000     0.107750000000     0.728170000000     0.022827   
C430     C      0.518960000000     0.107930000000     0.767770000000    -0.0313396  
C431     C      0.980320000000     0.140000000000     0.729030000000     0.0384507  
C432     C      0.520070000000     0.140230000000     0.766640000000     0.20599    
C433     C      0.999840000000     0.560410000000     0.248570000000     0.398438   
C434     C      0.499100000000     0.937530000000     0.250800000000     0.420478   
C435     C      0.937960000000     0.499130000000     0.251300000000     0.403423   
C436     C      0.560790000000     0.998090000000     0.247920000000     0.411542   
C437     C      0.499870000000     0.687540000000     0.247280000000     0.416879   
C438     C      0.498540000000     0.810350000000     0.250630000000     0.403159   
C439     C      0.501680000000     0.750870000000     0.187360000000     0.402712   
C440     C      0.496300000000     0.746400000000     0.310160000000     0.401231   
C441     C      0.810670000000     0.498520000000     0.251160000000     0.414338   
C442     C      0.688050000000     0.498180000000     0.248420000000     0.40347    
C443     C      0.750530000000     0.498530000000     0.188620000000     0.402386   
C444     C      0.748200000000     0.498490000000     0.311290000000     0.402733   
C445     C      0.749090000000     0.561010000000     0.998440000000     0.400384   
C446     C      0.747600000000     0.938350000000     0.501490000000     0.402377   
C447     C      0.749020000000     0.500160000000     0.061290000000     0.414319   
C448     C      0.747890000000     0.998940000000     0.438670000000     0.410401   
C449     C      0.001880000000     0.751330000000     0.060020000000     0.425854   
C450     C      0.496140000000     0.746150000000     0.437320000000     0.421277   
C451     C      0.937890000000     0.749840000000     0.001100000000     0.418867   
C452     C      0.560660000000     0.747810000000     0.496820000000     0.424215   
C453     C      0.750020000000     0.688340000000     0.997340000000     0.414104   
C454     C      0.747830000000     0.811130000000     0.001750000000     0.417844   
C455     C      0.687820000000     0.748880000000     0.998320000000     0.401329   
C456     C      0.810730000000     0.750600000000     0.000720000000     0.404776   
C457     C      0.858490000000     0.769710000000     0.481930000000     0.0261173  
C458     C      0.857870000000     0.731770000000     0.021210000000    -0.0316881  
C459     C      0.890730000000     0.770590000000     0.483330000000     0.041207   
C460     C      0.890200000000     0.730520000000     0.020590000000     0.205388   
C461     C      0.640430000000     0.763290000000     0.474930000000     0.024451   
C462     C      0.640360000000     0.732890000000     0.020300000000    -0.0289971  
C463     C      0.608160000000     0.764150000000     0.475510000000     0.0412302  
C464     C      0.608090000000     0.731110000000     0.019140000000     0.208107   
C465     C      0.767190000000     0.890820000000     0.020700000000     0.0241674  
C466     C      0.726230000000     0.890920000000     0.984610000000    -0.0322501  
C467     C      0.765940000000     0.858540000000     0.022010000000     0.0394843  
C468     C      0.726740000000     0.858630000000     0.983840000000     0.205129   
C469     C      0.728980000000     0.608960000000     0.015340000000     0.025876   
C470     C      0.769620000000     0.608060000000     0.978900000000    -0.0319912  
C471     C      0.730160000000     0.641140000000     0.015810000000     0.0407465  
C472     C      0.769050000000     0.640450000000     0.977360000000     0.204699   
C473     C      0.765300000000     0.977760000000     0.359060000000     0.0245886  
C474     C      0.730430000000     0.519750000000     0.358570000000    -0.0308344  
C475     C      0.766240000000     0.978930000000     0.391300000000     0.0389925  
C476     C      0.729380000000     0.519350000000     0.390900000000     0.205855   
C477     C      0.767900000000     0.519560000000     0.141030000000     0.0239493  
C478     C      0.732710000000     0.977830000000     0.141170000000    -0.0325914  
C479     C      0.768420000000     0.518990000000     0.108750000000     0.0385222  
C480     C      0.731210000000     0.978880000000     0.108880000000     0.204319   
C481     C      0.515690000000     0.727430000000     0.357750000000     0.0239014  
C482     C      0.973200000000     0.761700000000     0.357430000000    -0.0323071  
C483     C      0.514500000000     0.726200000000     0.390000000000     0.0400861  
C484     C      0.973950000000     0.762930000000     0.389770000000     0.205828   
C485     C      0.981600000000     0.734000000000     0.139570000000     0.023007   
C486     C      0.023600000000     0.768860000000     0.140120000000    -0.028873   
C487     C      0.982340000000     0.733510000000     0.107440000000     0.0381709  
C488     C      0.022460000000     0.770670000000     0.107680000000     0.207029   
C489     C      0.640490000000     0.517940000000     0.229330000000     0.0260473  
C490     C      0.640620000000     0.977090000000     0.265560000000    -0.0312721  
C491     C      0.608220000000     0.516580000000     0.227960000000     0.0405933  
C492     C      0.608330000000     0.977480000000     0.266240000000     0.206096   
C493     C      0.890280000000     0.515480000000     0.273170000000     0.0244236  
C494     C      0.890680000000     0.981470000000     0.230460000000    -0.0330275  
C495     C      0.857980000000     0.516540000000     0.271880000000     0.0387236  
C496     C      0.858420000000     0.980440000000     0.230760000000     0.20375    
C497     C      0.979300000000     0.858010000000     0.231820000000     0.0240884  
C498     C      0.017660000000     0.857550000000     0.270680000000    -0.0295121  
C499     C      0.980760000000     0.890230000000     0.230810000000     0.039705   
C500     C      0.016820000000     0.889870000000     0.271970000000     0.206496   
C501     C      0.981340000000     0.607750000000     0.228170000000     0.0227214  
C502     C      0.518960000000     0.607930000000     0.267770000000    -0.0313655  
C503     C      0.980320000000     0.640000000000     0.229030000000     0.0383749  
C504     C      0.520070000000     0.640230000000     0.266640000000     0.205803   
C505     C      0.999840000000     0.560410000000     0.748570000000     0.398441   
C506     C      0.499100000000     0.937530000000     0.750800000000     0.42048    
C507     C      0.937960000000     0.499130000000     0.751300000000     0.403425   
C508     C      0.560790000000     0.998090000000     0.747920000000     0.411531   
C509     C      0.499870000000     0.687540000000     0.747280000000     0.416879   
C510     C      0.498540000000     0.810350000000     0.750630000000     0.4031     
C511     C      0.501680000000     0.750870000000     0.687360000000     0.402704   
C512     C      0.496300000000     0.746400000000     0.810160000000     0.401285   
C513     C      0.810670000000     0.498520000000     0.751160000000     0.414336   
C514     C      0.688050000000     0.498180000000     0.748420000000     0.403466   
C515     C      0.750530000000     0.498530000000     0.688620000000     0.402381   
C516     C      0.748200000000     0.498490000000     0.811290000000     0.402728   
C517     C      0.749090000000     0.561010000000     0.498440000000     0.401863   
C518     C      0.747600000000     0.938350000000     0.001490000000     0.403906   
C519     C      0.749020000000     0.500160000000     0.561280000000     0.414424   
C520     C      0.747890000000     0.998940000000     0.938670000000     0.410496   
C521     C      0.001880000000     0.751330000000     0.560020000000     0.425936   
C522     C      0.496140000000     0.746150000000     0.937320000000     0.42128    
C523     C      0.937890000000     0.749840000000     0.501100000000     0.418852   
C524     C      0.560660000000     0.747810000000     0.996820000000     0.422686   
C525     C      0.750020000000     0.688340000000     0.497340000000     0.415329   
C526     C      0.747830000000     0.811130000000     0.501750000000     0.416268   
C527     C      0.687820000000     0.748880000000     0.498320000000     0.40277    
C528     C      0.810730000000     0.750600000000     0.500720000000     0.402967   
C529     C      0.858490000000     0.769710000000     0.981930000000     0.0253525  
C530     C      0.857870000000     0.731770000000     0.521210000000    -0.0319328  
C531     C      0.890730000000     0.770590000000     0.983330000000     0.0401642  
C532     C      0.890200000000     0.730520000000     0.520590000000     0.20521    
C533     C      0.640430000000     0.763290000000     0.974940000000     0.0242868  
C534     C      0.640360000000     0.732890000000     0.520300000000    -0.0299084  
C535     C      0.608160000000     0.764150000000     0.975520000000     0.0410522  
C536     C      0.608090000000     0.731110000000     0.519140000000     0.207287   
C537     C      0.767190000000     0.890820000000     0.520700000000     0.0239399  
C538     C      0.726230000000     0.890920000000     0.484610000000    -0.0314015  
C539     C      0.765940000000     0.858540000000     0.522010000000     0.039181   
C540     C      0.726740000000     0.858630000000     0.483840000000     0.205997   
C541     C      0.728980000000     0.608960000000     0.515340000000     0.0249756  
C542     C      0.769620000000     0.608060000000     0.478900000000    -0.0317681  
C543     C      0.730160000000     0.641140000000     0.515810000000     0.039837   
C544     C      0.769050000000     0.640450000000     0.477360000000     0.204914   
C545     C      0.765300000000     0.977760000000     0.859060000000     0.0245657  
C546     C      0.730430000000     0.519750000000     0.858570000000    -0.0308624  
C547     C      0.766240000000     0.978930000000     0.891300000000     0.0389644  
C548     C      0.729380000000     0.519350000000     0.890900000000     0.205853   
C549     C      0.767900000000     0.519560000000     0.641030000000     0.0239231  
C550     C      0.732710000000     0.977830000000     0.641170000000    -0.0326092  
C551     C      0.768420000000     0.518990000000     0.608750000000     0.0384852  
C552     C      0.731210000000     0.978880000000     0.608880000000     0.204278   
C553     C      0.515690000000     0.727430000000     0.857750000000     0.023878   
C554     C      0.973200000000     0.761700000000     0.857430000000    -0.0322803  
C555     C      0.514500000000     0.726200000000     0.890000000000     0.0400687  
C556     C      0.973950000000     0.762930000000     0.889780000000     0.205853   
C557     C      0.981600000000     0.734000000000     0.639570000000     0.0229888  
C558     C      0.023600000000     0.768860000000     0.640120000000    -0.0288938  
C559     C      0.982340000000     0.733510000000     0.607440000000     0.0381407  
C560     C      0.022460000000     0.770670000000     0.607680000000     0.207009   
C561     C      0.640490000000     0.517940000000     0.729330000000     0.0260363  
C562     C      0.640620000000     0.977090000000     0.765560000000    -0.0312842  
C563     C      0.608220000000     0.516580000000     0.727960000000     0.0405804  
C564     C      0.608330000000     0.977480000000     0.766240000000     0.206084   
C565     C      0.890280000000     0.515480000000     0.773170000000     0.0244138  
C566     C      0.890680000000     0.981470000000     0.730460000000    -0.0330383  
C567     C      0.857980000000     0.516540000000     0.771880000000     0.0387132  
C568     C      0.858420000000     0.980440000000     0.730760000000     0.203737   
C569     C      0.979300000000     0.858010000000     0.731820000000     0.0240206  
C570     C      0.017660000000     0.857550000000     0.770680000000    -0.0294306  
C571     C      0.980760000000     0.890230000000     0.730810000000     0.0397137  
C572     C      0.016820000000     0.889870000000     0.771970000000     0.206452   
C573     C      0.981340000000     0.607750000000     0.728170000000     0.022732   
C574     C      0.518960000000     0.607930000000     0.767770000000    -0.0314012  
C575     C      0.980320000000     0.640000000000     0.729030000000     0.0383128  
C576     C      0.520070000000     0.640230000000     0.766640000000     0.205856   
Cu1      Cu     0.498190000000     0.498500000000     0.221140000000     0.852053   
Cu2      Cu     0.000590000000     0.999450000000     0.278140000000     0.857597   
Cu3      Cu     0.470670000000     0.248680000000     0.247080000000     0.85228    
Cu4      Cu     0.027600000000     0.249200000000     0.250480000000     0.856815   
Cu5      Cu     0.249430000000     0.470160000000     0.249980000000     0.856249   
Cu6      Cu     0.249320000000     0.026800000000     0.249930000000     0.845931   
Cu7      Cu     0.220130000000     0.500020000000     0.000200000000     0.863576   
Cu8      Cu     0.276750000000     0.999330000000     0.499750000000     0.83006    
Cu9      Cu     0.499720000000     0.277290000000     0.496990000000     0.850023   
Cu10     Cu     0.998840000000     0.220350000000     0.000300000000     0.86464    
Cu11     Cu     0.248770000000     0.248300000000     0.028000000000     0.852599   
Cu12     Cu     0.249800000000     0.251230000000     0.471030000000     0.858911   
Cu13     Cu     0.498190000000     0.498500000000     0.721140000000     0.851992   
Cu14     Cu     0.000590000000     0.999450000000     0.778140000000     0.857539   
Cu15     Cu     0.470670000000     0.248680000000     0.747080000000     0.852277   
Cu16     Cu     0.027600000000     0.249200000000     0.750480000000     0.85668    
Cu17     Cu     0.249430000000     0.470160000000     0.749980000000     0.856242   
Cu18     Cu     0.249320000000     0.026800000000     0.749930000000     0.845929   
Cu19     Cu     0.220130000000     0.500020000000     0.500210000000     0.860263   
Cu20     Cu     0.276750000000     0.999330000000     0.999750000000     0.826829   
Cu21     Cu     0.499720000000     0.277290000000     0.996990000000     0.846831   
Cu22     Cu     0.998840000000     0.220350000000     0.500300000000     0.862265   
Cu23     Cu     0.248770000000     0.248300000000     0.528000000000     0.851469   
Cu24     Cu     0.249800000000     0.251230000000     0.971030000000     0.857963   
Cu25     Cu     0.498190000000     0.998500000000     0.221140000000     0.845189   
Cu26     Cu     0.000590000000     0.499450000000     0.278140000000     0.864514   
Cu27     Cu     0.470670000000     0.748670000000     0.247080000000     0.852248   
Cu28     Cu     0.027600000000     0.749190000000     0.250480000000     0.856797   
Cu29     Cu     0.249430000000     0.970160000000     0.249980000000     0.851727   
Cu30     Cu     0.249320000000     0.526800000000     0.249930000000     0.843237   
Cu31     Cu     0.220130000000     0.000020000000     0.000200000000     0.875031   
Cu32     Cu     0.276750000000     0.499330000000     0.499750000000     0.840867   
Cu33     Cu     0.499720000000     0.777290000000     0.496990000000     0.849932   
Cu34     Cu     0.998840000000     0.720350000000     0.000300000000     0.864402   
Cu35     Cu     0.248770000000     0.748300000000     0.028000000000     0.852569   
Cu36     Cu     0.249800000000     0.751230000000     0.471030000000     0.858896   
Cu37     Cu     0.498190000000     0.998500000000     0.721140000000     0.845111   
Cu38     Cu     0.000590000000     0.499450000000     0.778140000000     0.864468   
Cu39     Cu     0.470670000000     0.748670000000     0.747080000000     0.852244   
Cu40     Cu     0.027600000000     0.749190000000     0.750480000000     0.856661   
Cu41     Cu     0.249430000000     0.970160000000     0.749980000000     0.851711   
Cu42     Cu     0.249320000000     0.526800000000     0.749930000000     0.84323    
Cu43     Cu     0.220130000000     0.000020000000     0.500210000000     0.87178    
Cu44     Cu     0.276750000000     0.499330000000     0.999750000000     0.837619   
Cu45     Cu     0.499720000000     0.777290000000     0.996990000000     0.846719   
Cu46     Cu     0.998840000000     0.720350000000     0.500300000000     0.862008   
Cu47     Cu     0.248770000000     0.748300000000     0.528000000000     0.851431   
Cu48     Cu     0.249800000000     0.751230000000     0.971030000000     0.857941   
Cu49     Cu     0.998190000000     0.498500000000     0.221140000000     0.846587   
Cu50     Cu     0.500590000000     0.999450000000     0.278140000000     0.850759   
Cu51     Cu     0.970670000000     0.248680000000     0.247080000000     0.849502   
Cu52     Cu     0.527600000000     0.249200000000     0.250480000000     0.854878   
Cu53     Cu     0.749430000000     0.470160000000     0.249980000000     0.856208   
Cu54     Cu     0.749320000000     0.026800000000     0.249930000000     0.845911   
Cu55     Cu     0.720130000000     0.500020000000     0.000200000000     0.863397   
Cu56     Cu     0.776750000000     0.999330000000     0.499750000000     0.830014   
Cu57     Cu     0.999720000000     0.277290000000     0.496990000000     0.845795   
Cu58     Cu     0.498850000000     0.220350000000     0.000300000000     0.866699   
Cu59     Cu     0.748770000000     0.248300000000     0.028000000000     0.852708   
Cu60     Cu     0.749790000000     0.251230000000     0.471030000000     0.858879   
Cu61     Cu     0.998190000000     0.498500000000     0.721140000000     0.846526   
Cu62     Cu     0.500590000000     0.999450000000     0.778140000000     0.850702   
Cu63     Cu     0.970670000000     0.248680000000     0.747080000000     0.8495     
Cu64     Cu     0.527600000000     0.249200000000     0.750480000000     0.854741   
Cu65     Cu     0.749430000000     0.470160000000     0.749980000000     0.856201   
Cu66     Cu     0.749320000000     0.026800000000     0.749930000000     0.84591    
Cu67     Cu     0.720130000000     0.500020000000     0.500210000000     0.86008    
Cu68     Cu     0.776750000000     0.999330000000     0.999750000000     0.826785   
Cu69     Cu     0.999720000000     0.277290000000     0.996990000000     0.842627   
Cu70     Cu     0.498850000000     0.220350000000     0.500300000000     0.864325   
Cu71     Cu     0.748770000000     0.248300000000     0.528000000000     0.851578   
Cu72     Cu     0.749790000000     0.251230000000     0.971030000000     0.857931   
Cu73     Cu     0.998190000000     0.998500000000     0.221140000000     0.83977    
Cu74     Cu     0.500590000000     0.499450000000     0.278140000000     0.857671   
Cu75     Cu     0.970670000000     0.748670000000     0.247080000000     0.849474   
Cu76     Cu     0.527600000000     0.749190000000     0.250480000000     0.854861   
Cu77     Cu     0.749430000000     0.970160000000     0.249980000000     0.851691   
Cu78     Cu     0.749320000000     0.526800000000     0.249930000000     0.843219   
Cu79     Cu     0.720130000000     0.000020000000     0.000200000000     0.874848   
Cu80     Cu     0.776750000000     0.499330000000     0.499750000000     0.84081    
Cu81     Cu     0.999720000000     0.777290000000     0.496990000000     0.845713   
Cu82     Cu     0.498850000000     0.720350000000     0.000300000000     0.866458   
Cu83     Cu     0.748770000000     0.748300000000     0.028000000000     0.852678   
Cu84     Cu     0.749790000000     0.751230000000     0.471030000000     0.858864   
Cu85     Cu     0.998190000000     0.998500000000     0.721140000000     0.839692   
Cu86     Cu     0.500590000000     0.499450000000     0.778140000000     0.857626   
Cu87     Cu     0.970670000000     0.748670000000     0.747080000000     0.849471   
Cu88     Cu     0.527600000000     0.749190000000     0.750480000000     0.854724   
Cu89     Cu     0.749430000000     0.970160000000     0.749980000000     0.851674   
Cu90     Cu     0.749320000000     0.526800000000     0.749930000000     0.843212   
Cu91     Cu     0.720130000000     0.000020000000     0.500210000000     0.871594   
Cu92     Cu     0.776750000000     0.499330000000     0.999750000000     0.837564   
Cu93     Cu     0.999720000000     0.777290000000     0.996990000000     0.842525   
Cu94     Cu     0.498850000000     0.720350000000     0.500300000000     0.864064   
Cu95     Cu     0.748770000000     0.748300000000     0.528000000000     0.85154    
Cu96     Cu     0.749790000000     0.751230000000     0.971030000000     0.85791    
H1       H      0.402960000000     0.286400000000     0.468170000000     0.041323   
H2       H      0.346730000000     0.285270000000     0.466160000000     0.042119   
H3       H      0.345540000000     0.216340000000     0.036680000000     0.062899   
H4       H      0.408720000000     0.222000000000     0.059350000000     0.148586   
H5       H      0.096160000000     0.277160000000     0.457730000000     0.0354937  
H6       H      0.152460000000     0.276030000000     0.456990000000     0.043006   
H7       H      0.152410000000     0.220650000000     0.038590000000     0.0642987  
H8       H      0.091050000000     0.193520000000     0.033700000000     0.158243   
H9       H      0.281910000000     0.346510000000     0.037150000000     0.0350628  
H10      H      0.283630000000     0.402780000000     0.035380000000     0.0390881  
H11      H      0.210000000000     0.402980000000     0.969750000000     0.0669977  
H12      H      0.187550000000     0.340070000000     0.977690000000     0.151577   
H13      H      0.214360000000     0.153360000000     0.031010000000     0.0364157  
H14      H      0.212700000000     0.097420000000     0.030530000000     0.0422532  
H15      H      0.285710000000     0.095610000000     0.964230000000     0.064086   
H16      H      0.308210000000     0.158720000000     0.970350000000     0.153724   
H17      H      0.280880000000     0.462560000000     0.403410000000     0.0375398  
H18      H      0.279700000000     0.460920000000     0.347320000000     0.0421018  
H19      H      0.216240000000     0.036430000000     0.346330000000     0.0670601  
H20      H      0.224380000000     0.058860000000     0.409100000000     0.154103   
H21      H      0.283040000000     0.035460000000     0.096740000000     0.0355566  
H22      H      0.282510000000     0.036100000000     0.152940000000     0.0394747  
H23      H      0.218490000000     0.461060000000     0.153250000000     0.0660152  
H24      H      0.225690000000     0.439780000000     0.089940000000     0.151522   
H25      H      0.031070000000     0.211740000000     0.402070000000     0.0355604  
H26      H      0.032790000000     0.213450000000     0.345870000000     0.0409951  
H27      H      0.456370000000     0.275760000000     0.345250000000     0.0641372  
H28      H      0.462330000000     0.301590000000     0.406740000000     0.157398   
H29      H      0.465870000000     0.218870000000     0.095430000000     0.0359913  
H30      H      0.464850000000     0.219420000000     0.151240000000     0.0399276  
H31      H      0.540350000000     0.282860000000     0.152470000000     0.0649123  
H32      H      0.533000000000     0.309560000000     0.090670000000     0.157083   
H33      H      0.096160000000     0.032440000000     0.212730000000     0.0376001  
H34      H      0.152440000000     0.034360000000     0.214620000000     0.0422631  
H35      H      0.152670000000     0.460920000000     0.280490000000     0.067551   
H36      H      0.090110000000     0.438170000000     0.272410000000     0.162679   
H37      H      0.345800000000     0.030870000000     0.288480000000     0.036379   
H38      H      0.402110000000     0.029490000000     0.290270000000     0.0403373  
H39      H      0.402860000000     0.467580000000     0.213480000000     0.06368    
H40      H      0.340360000000     0.476180000000     0.191080000000     0.15047    
H41      H      0.466160000000     0.402400000000     0.214440000000     0.0349246  
H42      H      0.464010000000     0.346190000000     0.215830000000     0.0400504  
H43      H      0.532870000000     0.345260000000     0.286400000000     0.0640189  
H44      H      0.523570000000     0.407030000000     0.311660000000     0.160093   
H45      H      0.464480000000     0.151950000000     0.213670000000     0.0341173  
H46      H      0.465890000000     0.095670000000     0.212540000000     0.040212   
H47      H      0.034250000000     0.095920000000     0.283630000000     0.0661024  
H48      H      0.028060000000     0.159270000000     0.305280000000     0.151103   
H49      H      0.402960000000     0.286400000000     0.968170000000     0.0412877  
H50      H      0.346730000000     0.285270000000     0.966160000000     0.0420678  
H51      H      0.345540000000     0.216340000000     0.536680000000     0.0628188  
H52      H      0.408720000000     0.222000000000     0.559350000000     0.148567   
H53      H      0.096160000000     0.277160000000     0.957730000000     0.0354657  
H54      H      0.152460000000     0.276030000000     0.956990000000     0.0429774  
H55      H      0.152410000000     0.220650000000     0.538590000000     0.0643453  
H56      H      0.091050000000     0.193520000000     0.533700000000     0.158063   
H57      H      0.281910000000     0.346510000000     0.537160000000     0.0350065  
H58      H      0.283630000000     0.402780000000     0.535380000000     0.039004   
H59      H      0.210000000000     0.402980000000     0.469750000000     0.0669901  
H60      H      0.187550000000     0.340070000000     0.477690000000     0.151822   
H61      H      0.214360000000     0.153360000000     0.531010000000     0.036426   
H62      H      0.212700000000     0.097420000000     0.530530000000     0.0422695  
H63      H      0.285710000000     0.095610000000     0.464230000000     0.0641224  
H64      H      0.308210000000     0.158720000000     0.470350000000     0.153965   
H65      H      0.280880000000     0.462560000000     0.903410000000     0.0374492  
H66      H      0.279700000000     0.460920000000     0.847320000000     0.0420776  
H67      H      0.216240000000     0.036430000000     0.846330000000     0.0670372  
H68      H      0.224380000000     0.058860000000     0.909100000000     0.154044   
H69      H      0.283040000000     0.035460000000     0.596740000000     0.0354431  
H70      H      0.282510000000     0.036100000000     0.652940000000     0.0394438  
H71      H      0.218490000000     0.461060000000     0.653250000000     0.0659916  
H72      H      0.225690000000     0.439780000000     0.589940000000     0.151458   
H73      H      0.031070000000     0.211740000000     0.902070000000     0.0354582  
H74      H      0.032790000000     0.213450000000     0.845870000000     0.0409729  
H75      H      0.456370000000     0.275760000000     0.845250000000     0.064105   
H76      H      0.462330000000     0.301590000000     0.906740000000     0.157356   
H77      H      0.465870000000     0.218870000000     0.595430000000     0.0359537  
H78      H      0.464850000000     0.219420000000     0.651240000000     0.0399086  
H79      H      0.540350000000     0.282860000000     0.652470000000     0.0648869  
H80      H      0.533000000000     0.309560000000     0.590670000000     0.15695    
H81      H      0.096160000000     0.032440000000     0.712730000000     0.0375768  
H82      H      0.152440000000     0.034360000000     0.714620000000     0.0422476  
H83      H      0.152670000000     0.460920000000     0.780490000000     0.0675354  
H84      H      0.090110000000     0.438170000000     0.772410000000     0.162671   
H85      H      0.345800000000     0.030870000000     0.788480000000     0.0363618  
H86      H      0.402110000000     0.029490000000     0.790270000000     0.0403103  
H87      H      0.402860000000     0.467580000000     0.713480000000     0.0636508  
H88      H      0.340360000000     0.476180000000     0.691080000000     0.150436   
H89      H      0.466160000000     0.402400000000     0.714440000000     0.0348899  
H90      H      0.464010000000     0.346190000000     0.715830000000     0.0400498  
H91      H      0.532870000000     0.345260000000     0.786410000000     0.0639718  
H92      H      0.523570000000     0.407030000000     0.811660000000     0.160056   
H93      H      0.464480000000     0.151950000000     0.713670000000     0.034114   
H94      H      0.465890000000     0.095670000000     0.712540000000     0.0401811  
H95      H      0.034250000000     0.095920000000     0.783630000000     0.0660814  
H96      H      0.028060000000     0.159270000000     0.805280000000     0.151077   
H97      H      0.402960000000     0.786410000000     0.468170000000     0.0412293  
H98      H      0.346730000000     0.785270000000     0.466160000000     0.0420807  
H99      H      0.345540000000     0.716340000000     0.036680000000     0.0628321  
H100     H      0.408720000000     0.722000000000     0.059350000000     0.148549   
H101     H      0.096160000000     0.777160000000     0.457730000000     0.035429   
H102     H      0.152460000000     0.776030000000     0.456990000000     0.0429628  
H103     H      0.152410000000     0.720650000000     0.038590000000     0.0642372  
H104     H      0.091050000000     0.693520000000     0.033700000000     0.158223   
H105     H      0.281910000000     0.846510000000     0.037150000000     0.0349787  
H106     H      0.283630000000     0.902780000000     0.035380000000     0.0388328  
H107     H      0.210000000000     0.902980000000     0.969750000000     0.0666884  
H108     H      0.187550000000     0.840070000000     0.977690000000     0.151473   
H109     H      0.214360000000     0.653360000000     0.031010000000     0.0363368  
H110     H      0.212700000000     0.597420000000     0.030530000000     0.041984   
H111     H      0.285710000000     0.595610000000     0.964230000000     0.0636703  
H112     H      0.308210000000     0.658720000000     0.970350000000     0.153586   
H113     H      0.280880000000     0.962560000000     0.403410000000     0.0374221  
H114     H      0.279700000000     0.960920000000     0.347320000000     0.0419445  
H115     H      0.216240000000     0.536430000000     0.346330000000     0.0670594  
H116     H      0.224380000000     0.558860000000     0.409100000000     0.153737   
H117     H      0.283040000000     0.535460000000     0.096740000000     0.0358795  
H118     H      0.282510000000     0.536100000000     0.152940000000     0.0393259  
H119     H      0.218490000000     0.961060000000     0.153250000000     0.0659358  
H120     H      0.225690000000     0.939780000000     0.089940000000     0.151329   
H121     H      0.031070000000     0.711740000000     0.402070000000     0.0354604  
H122     H      0.032790000000     0.713450000000     0.345870000000     0.0409299  
H123     H      0.456370000000     0.775760000000     0.345250000000     0.0640954  
H124     H      0.462330000000     0.801590000000     0.406740000000     0.157299   
H125     H      0.465870000000     0.718870000000     0.095430000000     0.0359104  
H126     H      0.464850000000     0.719420000000     0.151240000000     0.0398402  
H127     H      0.540350000000     0.782860000000     0.152470000000     0.0648387  
H128     H      0.533000000000     0.809560000000     0.090670000000     0.156956   
H129     H      0.096160000000     0.532440000000     0.212730000000     0.0375028  
H130     H      0.152440000000     0.534360000000     0.214620000000     0.042182   
H131     H      0.152670000000     0.960920000000     0.280490000000     0.0674088  
H132     H      0.090110000000     0.938170000000     0.272410000000     0.162612   
H133     H      0.345800000000     0.530870000000     0.288480000000     0.0361881  
H134     H      0.402110000000     0.529490000000     0.290270000000     0.0401978  
H135     H      0.402860000000     0.967580000000     0.213480000000     0.063577   
H136     H      0.340360000000     0.976180000000     0.191080000000     0.149714   
H137     H      0.466160000000     0.902400000000     0.214440000000     0.0348185  
H138     H      0.464010000000     0.846190000000     0.215830000000     0.0399904  
H139     H      0.532870000000     0.845270000000     0.286400000000     0.063989   
H140     H      0.523570000000     0.907040000000     0.311660000000     0.159867   
H141     H      0.464480000000     0.651950000000     0.213670000000     0.033995   
H142     H      0.465890000000     0.595670000000     0.212540000000     0.039754   
H143     H      0.034250000000     0.595910000000     0.283630000000     0.0656695  
H144     H      0.028060000000     0.659270000000     0.305280000000     0.15098    
H145     H      0.402960000000     0.786410000000     0.968170000000     0.0411937  
H146     H      0.346730000000     0.785270000000     0.966160000000     0.0420294  
H147     H      0.345540000000     0.716340000000     0.536680000000     0.0627511  
H148     H      0.408720000000     0.722000000000     0.559350000000     0.148529   
H149     H      0.096160000000     0.777160000000     0.957730000000     0.0354011  
H150     H      0.152460000000     0.776030000000     0.956990000000     0.0429343  
H151     H      0.152410000000     0.720650000000     0.538590000000     0.0642838  
H152     H      0.091050000000     0.693520000000     0.533700000000     0.158042   
H153     H      0.281910000000     0.846510000000     0.537160000000     0.0349218  
H154     H      0.283630000000     0.902780000000     0.535380000000     0.0387473  
H155     H      0.210000000000     0.902980000000     0.469750000000     0.06668    
H156     H      0.187550000000     0.840070000000     0.477690000000     0.15172    
H157     H      0.214360000000     0.653360000000     0.531010000000     0.0363464  
H158     H      0.212700000000     0.597420000000     0.530530000000     0.0419997  
H159     H      0.285710000000     0.595610000000     0.464230000000     0.0637071  
H160     H      0.308210000000     0.658720000000     0.470350000000     0.153828   
H161     H      0.280880000000     0.962560000000     0.903410000000     0.037331   
H162     H      0.279700000000     0.960920000000     0.847320000000     0.04192    
H163     H      0.216240000000     0.536430000000     0.846330000000     0.0670363  
H164     H      0.224380000000     0.558860000000     0.909100000000     0.153678   
H165     H      0.283040000000     0.535460000000     0.596740000000     0.0357668  
H166     H      0.282510000000     0.536100000000     0.652940000000     0.0392942  
H167     H      0.218490000000     0.961060000000     0.653250000000     0.065912   
H168     H      0.225690000000     0.939780000000     0.589940000000     0.151263   
H169     H      0.031070000000     0.711740000000     0.902070000000     0.0353575  
H170     H      0.032790000000     0.713450000000     0.845870000000     0.0409074  
H171     H      0.456370000000     0.775760000000     0.845250000000     0.064063   
H172     H      0.462330000000     0.801590000000     0.906740000000     0.157258   
H173     H      0.465870000000     0.718870000000     0.595430000000     0.0358723  
H174     H      0.464850000000     0.719420000000     0.651240000000     0.0398209  
H175     H      0.540350000000     0.782860000000     0.652470000000     0.064813   
H176     H      0.533000000000     0.809560000000     0.590670000000     0.156821   
H177     H      0.096160000000     0.532440000000     0.712730000000     0.0374788  
H178     H      0.152440000000     0.534360000000     0.714620000000     0.0421659  
H179     H      0.152670000000     0.960920000000     0.780490000000     0.0673933  
H180     H      0.090110000000     0.938170000000     0.772410000000     0.162604   
H181     H      0.345800000000     0.530870000000     0.788480000000     0.0361709  
H182     H      0.402110000000     0.529490000000     0.790270000000     0.0401707  
H183     H      0.402860000000     0.967580000000     0.713480000000     0.0635472  
H184     H      0.340360000000     0.976180000000     0.691080000000     0.149679   
H185     H      0.466160000000     0.902400000000     0.714440000000     0.0347834  
H186     H      0.464010000000     0.846190000000     0.715830000000     0.0399895  
H187     H      0.532870000000     0.845270000000     0.786410000000     0.0639417  
H188     H      0.523570000000     0.907040000000     0.811660000000     0.159829   
H189     H      0.464480000000     0.651950000000     0.713670000000     0.0339912  
H190     H      0.465890000000     0.595670000000     0.712540000000     0.0397218  
H191     H      0.034250000000     0.595910000000     0.783630000000     0.0656476  
H192     H      0.028060000000     0.659270000000     0.805280000000     0.150954   
H193     H      0.902960000000     0.286400000000     0.468170000000     0.0412305  
H194     H      0.846730000000     0.285270000000     0.466160000000     0.0420773  
H195     H      0.845540000000     0.216340000000     0.036680000000     0.0628617  
H196     H      0.908720000000     0.222000000000     0.059350000000     0.148464   
H197     H      0.596160000000     0.277160000000     0.457730000000     0.0352079  
H198     H      0.652460000000     0.276030000000     0.456990000000     0.0429411  
H199     H      0.652410000000     0.220650000000     0.038590000000     0.0642398  
H200     H      0.591050000000     0.193520000000     0.033700000000     0.157956   
H201     H      0.781900000000     0.346510000000     0.037150000000     0.0350343  
H202     H      0.783630000000     0.402780000000     0.035380000000     0.0390387  
H203     H      0.709990000000     0.402980000000     0.969750000000     0.0669085  
H204     H      0.687550000000     0.340070000000     0.977690000000     0.151495   
H205     H      0.714360000000     0.153360000000     0.031010000000     0.0363435  
H206     H      0.712700000000     0.097420000000     0.030530000000     0.0421945  
H207     H      0.785710000000     0.095610000000     0.964230000000     0.0640399  
H208     H      0.808210000000     0.158720000000     0.970350000000     0.153678   
H209     H      0.780880000000     0.462560000000     0.403410000000     0.037485   
H210     H      0.779700000000     0.460920000000     0.347320000000     0.0420691  
H211     H      0.716240000000     0.036430000000     0.346330000000     0.0670286  
H212     H      0.724380000000     0.058860000000     0.409100000000     0.154077   
H213     H      0.783040000000     0.035460000000     0.096740000000     0.0355172  
H214     H      0.782510000000     0.036100000000     0.152940000000     0.0394475  
H215     H      0.718490000000     0.461060000000     0.153250000000     0.065963   
H216     H      0.725690000000     0.439780000000     0.089940000000     0.1515     
H217     H      0.531070000000     0.211740000000     0.402070000000     0.0354018  
H218     H      0.532790000000     0.213450000000     0.345870000000     0.0410277  
H219     H      0.956370000000     0.275760000000     0.345250000000     0.064039   
H220     H      0.962340000000     0.301590000000     0.406740000000     0.156891   
H221     H      0.965870000000     0.218870000000     0.095430000000     0.0360842  
H222     H      0.964850000000     0.219420000000     0.151240000000     0.0400129  
H223     H      0.040350000000     0.282860000000     0.152470000000     0.0651016  
H224     H      0.033000000000     0.309560000000     0.090670000000     0.157603   
H225     H      0.596160000000     0.032440000000     0.212730000000     0.03732    
H226     H      0.652450000000     0.034360000000     0.214620000000     0.0421854  
H227     H      0.652670000000     0.460920000000     0.280490000000     0.0674989  
H228     H      0.590110000000     0.438170000000     0.272410000000     0.162469   
H229     H      0.845800000000     0.030870000000     0.288480000000     0.0363153  
H230     H      0.902110000000     0.029490000000     0.290270000000     0.040095   
H231     H      0.902870000000     0.467580000000     0.213480000000     0.0635908  
H232     H      0.840350000000     0.476180000000     0.191080000000     0.150421   
H233     H      0.966150000000     0.402400000000     0.214440000000     0.0347737  
H234     H      0.964010000000     0.346190000000     0.215830000000     0.039901   
H235     H      0.032870000000     0.345260000000     0.286400000000     0.0640803  
H236     H      0.023570000000     0.407030000000     0.311660000000     0.160835   
H237     H      0.964490000000     0.151950000000     0.213670000000     0.0344076  
H238     H      0.965890000000     0.095670000000     0.212540000000     0.0405007  
H239     H      0.534250000000     0.095920000000     0.283630000000     0.0657935  
H240     H      0.528060000000     0.159270000000     0.305280000000     0.150575   
H241     H      0.902960000000     0.286400000000     0.968170000000     0.0411958  
H242     H      0.846730000000     0.285270000000     0.966160000000     0.0420264  
H243     H      0.845540000000     0.216340000000     0.536680000000     0.0627815  
H244     H      0.908720000000     0.222000000000     0.559350000000     0.148445   
H245     H      0.596160000000     0.277160000000     0.957730000000     0.0351806  
H246     H      0.652460000000     0.276030000000     0.956990000000     0.0429126  
H247     H      0.652410000000     0.220650000000     0.538590000000     0.0642862  
H248     H      0.591050000000     0.193520000000     0.533700000000     0.157775   
H249     H      0.781900000000     0.346510000000     0.537160000000     0.034978   
H250     H      0.783630000000     0.402780000000     0.535380000000     0.0389546  
H251     H      0.709990000000     0.402980000000     0.469750000000     0.0669008  
H252     H      0.687550000000     0.340070000000     0.477690000000     0.15174    
H253     H      0.714360000000     0.153360000000     0.531010000000     0.0363534  
H254     H      0.712700000000     0.097420000000     0.530530000000     0.0422104  
H255     H      0.785710000000     0.095610000000     0.464230000000     0.064076   
H256     H      0.808210000000     0.158720000000     0.470350000000     0.153917   
H257     H      0.780880000000     0.462560000000     0.903410000000     0.0373947  
H258     H      0.779700000000     0.460920000000     0.847320000000     0.0420449  
H259     H      0.716240000000     0.036430000000     0.846330000000     0.0670058  
H260     H      0.724380000000     0.058860000000     0.909100000000     0.154019   
H261     H      0.783040000000     0.035460000000     0.596740000000     0.0354037  
H262     H      0.782510000000     0.036100000000     0.652940000000     0.0394165  
H263     H      0.718490000000     0.461060000000     0.653250000000     0.0659393  
H264     H      0.725690000000     0.439780000000     0.589940000000     0.151436   
H265     H      0.531070000000     0.211740000000     0.902070000000     0.0352999  
H266     H      0.532790000000     0.213450000000     0.845870000000     0.0410057  
H267     H      0.956370000000     0.275760000000     0.845250000000     0.0640069  
H268     H      0.962340000000     0.301590000000     0.906740000000     0.15685    
H269     H      0.965870000000     0.218870000000     0.595430000000     0.036047   
H270     H      0.964850000000     0.219420000000     0.651240000000     0.0399939  
H271     H      0.040350000000     0.282860000000     0.652470000000     0.0650764  
H272     H      0.033000000000     0.309560000000     0.590670000000     0.157472   
H273     H      0.596160000000     0.032440000000     0.712730000000     0.0372963  
H274     H      0.652450000000     0.034360000000     0.714620000000     0.0421697  
H275     H      0.652670000000     0.460920000000     0.780490000000     0.0674834  
H276     H      0.590110000000     0.438170000000     0.772410000000     0.162461   
H277     H      0.845800000000     0.030870000000     0.788480000000     0.0362983  
H278     H      0.902110000000     0.029490000000     0.790270000000     0.0400682  
H279     H      0.902870000000     0.467580000000     0.713480000000     0.0635615  
H280     H      0.840350000000     0.476180000000     0.691080000000     0.150387   
H281     H      0.966150000000     0.402400000000     0.714440000000     0.034739   
H282     H      0.964010000000     0.346190000000     0.715830000000     0.0399001  
H283     H      0.032870000000     0.345260000000     0.786410000000     0.064033   
H284     H      0.023570000000     0.407030000000     0.811660000000     0.160797   
H285     H      0.964490000000     0.151950000000     0.713670000000     0.0344039  
H286     H      0.965890000000     0.095670000000     0.712540000000     0.0404699  
H287     H      0.534250000000     0.095920000000     0.783630000000     0.0657727  
H288     H      0.528060000000     0.159270000000     0.805280000000     0.15055    
H289     H      0.902960000000     0.786410000000     0.468170000000     0.0411372  
H290     H      0.846730000000     0.785270000000     0.466160000000     0.0420393  
H291     H      0.845540000000     0.716340000000     0.036680000000     0.062795   
H292     H      0.908720000000     0.722000000000     0.059350000000     0.148427   
H293     H      0.596160000000     0.777160000000     0.457730000000     0.0351434  
H294     H      0.652460000000     0.776030000000     0.456990000000     0.042898   
H295     H      0.652410000000     0.720650000000     0.038590000000     0.0641781  
H296     H      0.591050000000     0.693520000000     0.033700000000     0.157936   
H297     H      0.781900000000     0.846510000000     0.037150000000     0.0349504  
H298     H      0.783630000000     0.902780000000     0.035380000000     0.0387841  
H299     H      0.709990000000     0.902980000000     0.969750000000     0.0665992  
H300     H      0.687550000000     0.840070000000     0.977690000000     0.151392   
H301     H      0.714360000000     0.653360000000     0.031010000000     0.0362645  
H302     H      0.712700000000     0.597420000000     0.030530000000     0.0419252  
H303     H      0.785710000000     0.595610000000     0.964230000000     0.063625   
H304     H      0.808210000000     0.658720000000     0.970350000000     0.15354    
H305     H      0.780880000000     0.962560000000     0.403410000000     0.0373678  
H306     H      0.779700000000     0.960920000000     0.347320000000     0.0419124  
H307     H      0.716240000000     0.536430000000     0.346330000000     0.0670273  
H308     H      0.724380000000     0.558860000000     0.409100000000     0.153712   
H309     H      0.783040000000     0.535460000000     0.096740000000     0.0358403  
H310     H      0.782510000000     0.536100000000     0.152940000000     0.0392993  
H311     H      0.718490000000     0.961060000000     0.153250000000     0.0658836  
H312     H      0.725690000000     0.939780000000     0.089940000000     0.151307   
H313     H      0.531070000000     0.711740000000     0.402070000000     0.0353015  
H314     H      0.532790000000     0.713450000000     0.345870000000     0.0409621  
H315     H      0.956370000000     0.775760000000     0.345250000000     0.0639976  
H316     H      0.962340000000     0.801590000000     0.406740000000     0.156794   
H317     H      0.965870000000     0.718870000000     0.095430000000     0.0360034  
H318     H      0.964850000000     0.719420000000     0.151240000000     0.0399257  
H319     H      0.040350000000     0.782860000000     0.152470000000     0.0650279  
H320     H      0.033000000000     0.809560000000     0.090670000000     0.157475   
H321     H      0.596160000000     0.532440000000     0.212730000000     0.037222   
H322     H      0.652450000000     0.534360000000     0.214620000000     0.0421034  
H323     H      0.652670000000     0.960920000000     0.280490000000     0.0673568  
H324     H      0.590110000000     0.938170000000     0.272410000000     0.162403   
H325     H      0.845800000000     0.530870000000     0.288480000000     0.0361246  
H326     H      0.902110000000     0.529490000000     0.290270000000     0.0399554  
H327     H      0.902870000000     0.967580000000     0.213480000000     0.0634883  
H328     H      0.840350000000     0.976180000000     0.191080000000     0.149667   
H329     H      0.966150000000     0.902400000000     0.214440000000     0.0346686  
H330     H      0.964010000000     0.846190000000     0.215830000000     0.0398415  
H331     H      0.032870000000     0.845270000000     0.286400000000     0.06405    
H332     H      0.023570000000     0.907040000000     0.311660000000     0.160608   
H333     H      0.964490000000     0.651950000000     0.213670000000     0.0342856  
H334     H      0.965890000000     0.595670000000     0.212540000000     0.0400444  
H335     H      0.534250000000     0.595910000000     0.283630000000     0.0653596  
H336     H      0.528060000000     0.659270000000     0.305280000000     0.150452   
H337     H      0.902960000000     0.786410000000     0.968170000000     0.0411022  
H338     H      0.846730000000     0.785270000000     0.966160000000     0.0419882  
H339     H      0.845540000000     0.716340000000     0.536680000000     0.0627139  
H340     H      0.908720000000     0.722000000000     0.559350000000     0.148408   
H341     H      0.596160000000     0.777160000000     0.957730000000     0.0351163  
H342     H      0.652460000000     0.776030000000     0.956990000000     0.0428695  
H343     H      0.652410000000     0.720650000000     0.538590000000     0.0642247  
H344     H      0.591050000000     0.693520000000     0.533700000000     0.157753   
H345     H      0.781900000000     0.846510000000     0.537160000000     0.0348935  
H346     H      0.783630000000     0.902780000000     0.535380000000     0.0386985  
H347     H      0.709990000000     0.902980000000     0.469750000000     0.0665907  
H348     H      0.687550000000     0.840070000000     0.477690000000     0.151638   
H349     H      0.714360000000     0.653360000000     0.531010000000     0.0362738  
H350     H      0.712700000000     0.597420000000     0.530530000000     0.0419404  
H351     H      0.785710000000     0.595610000000     0.464230000000     0.0636614  
H352     H      0.808210000000     0.658720000000     0.470350000000     0.153781   
H353     H      0.780880000000     0.962560000000     0.903410000000     0.037277   
H354     H      0.779700000000     0.960920000000     0.847320000000     0.0418879  
H355     H      0.716240000000     0.536430000000     0.846330000000     0.0670043  
H356     H      0.724380000000     0.558860000000     0.909100000000     0.153652   
H357     H      0.783040000000     0.535460000000     0.596740000000     0.0357276  
H358     H      0.782510000000     0.536100000000     0.652940000000     0.0392676  
H359     H      0.718490000000     0.961060000000     0.653250000000     0.0658596  
H360     H      0.725690000000     0.939780000000     0.589940000000     0.151242   
H361     H      0.531070000000     0.711740000000     0.902070000000     0.0351988  
H362     H      0.532790000000     0.713450000000     0.845870000000     0.0409398  
H363     H      0.956370000000     0.775760000000     0.845250000000     0.0639654  
H364     H      0.962340000000     0.801590000000     0.906740000000     0.156753   
H365     H      0.965870000000     0.718870000000     0.595430000000     0.0359656  
H366     H      0.964850000000     0.719420000000     0.651240000000     0.0399064  
H367     H      0.040350000000     0.782860000000     0.652470000000     0.0650023  
H368     H      0.033000000000     0.809560000000     0.590670000000     0.157343   
H369     H      0.596160000000     0.532440000000     0.712730000000     0.0371976  
H370     H      0.652450000000     0.534360000000     0.714620000000     0.0420872  
H371     H      0.652670000000     0.960920000000     0.780490000000     0.0673414  
H372     H      0.590110000000     0.938170000000     0.772410000000     0.162395   
H373     H      0.845800000000     0.530870000000     0.788480000000     0.0361076  
H374     H      0.902110000000     0.529490000000     0.790270000000     0.0399287  
H375     H      0.902870000000     0.967580000000     0.713480000000     0.0634584  
H376     H      0.840350000000     0.976180000000     0.691080000000     0.149631   
H377     H      0.966150000000     0.902400000000     0.714440000000     0.0346333  
H378     H      0.964010000000     0.846190000000     0.715830000000     0.0398404  
H379     H      0.032870000000     0.845270000000     0.786410000000     0.0640027  
H380     H      0.023570000000     0.907040000000     0.811660000000     0.16057    
H381     H      0.964490000000     0.651950000000     0.713670000000     0.0342814  
H382     H      0.965890000000     0.595670000000     0.712540000000     0.0400123  
H383     H      0.534250000000     0.595910000000     0.783630000000     0.0653379  
H384     H      0.528060000000     0.659270000000     0.805280000000     0.150426   
N1       N      0.342260000000     0.250730000000     0.001300000000    -0.163479   
N2       N      0.406400000000     0.250330000000     0.001850000000    -0.203483   
N3       N      0.156310000000     0.248320000000     0.497800000000    -0.16353    
N4       N      0.092170000000     0.247470000000     0.497090000000    -0.204381   
N5       N      0.247050000000     0.406810000000     0.502290000000    -0.163388   
N6       N      0.246600000000     0.342620000000     0.502730000000    -0.204437   
N7       N      0.249270000000     0.092560000000     0.997530000000    -0.16385    
N8       N      0.249690000000     0.156790000000     0.996460000000    -0.204315   
N9       N      0.247910000000     0.498600000000     0.342860000000    -0.163399   
N10      N      0.247710000000     0.499110000000     0.407100000000    -0.203739   
N11      N      0.250460000000     0.998620000000     0.157050000000    -0.16501    
N12      N      0.249420000000     0.999350000000     0.092830000000    -0.208965   
N13      N      0.994890000000     0.245010000000     0.341660000000    -0.164444   
N14      N      0.994570000000     0.244890000000     0.405850000000    -0.206132   
N15      N      0.502590000000     0.251170000000     0.155800000000    -0.163723   
N16      N      0.502210000000     0.252280000000     0.091570000000    -0.203746   
N17      N      0.156500000000     0.497840000000     0.247780000000    -0.16319    
N18      N      0.092310000000     0.497170000000     0.247190000000    -0.203681   
N19      N      0.406420000000     0.998590000000     0.251890000000    -0.165413   
N20      N      0.342220000000     0.998460000000     0.251230000000    -0.205612   
N21      N      0.998390000000     0.341870000000     0.251140000000    -0.165026   
N22      N      0.998920000000     0.406010000000     0.251330000000    -0.206261   
N23      N      0.500080000000     0.091930000000     0.248100000000    -0.163646   
N24      N      0.500250000000     0.156050000000     0.247580000000    -0.204578   
N25      N      0.342260000000     0.250730000000     0.501310000000    -0.163842   
N26      N      0.406400000000     0.250330000000     0.501850000000    -0.204157   
N27      N      0.156310000000     0.248320000000     0.997800000000    -0.163969   
N28      N      0.092170000000     0.247470000000     0.997090000000    -0.204796   
N29      N      0.247050000000     0.406810000000     0.002290000000    -0.162948   
N30      N      0.246600000000     0.342620000000     0.002740000000    -0.203992   
N31      N      0.249270000000     0.092560000000     0.497530000000    -0.163437   
N32      N      0.249690000000     0.156790000000     0.496460000000    -0.203856   
N33      N      0.247910000000     0.498600000000     0.842860000000    -0.163401   
N34      N      0.247710000000     0.499110000000     0.907100000000    -0.203784   
N35      N      0.250460000000     0.998620000000     0.657050000000    -0.165019   
N36      N      0.249420000000     0.999350000000     0.592830000000    -0.208948   
N37      N      0.994890000000     0.245010000000     0.841660000000    -0.164459   
N38      N      0.994570000000     0.244890000000     0.905850000000    -0.206202   
N39      N      0.502590000000     0.251170000000     0.655800000000    -0.163725   
N40      N      0.502210000000     0.252280000000     0.591570000000    -0.203784   
N41      N      0.156500000000     0.497840000000     0.747780000000    -0.163192   
N42      N      0.092310000000     0.497170000000     0.747190000000    -0.203687   
N43      N      0.406420000000     0.998590000000     0.751890000000    -0.165422   
N44      N      0.342220000000     0.998460000000     0.751230000000    -0.205616   
N45      N      0.998390000000     0.341870000000     0.751150000000    -0.165019   
N46      N      0.998920000000     0.406010000000     0.751330000000    -0.206264   
N47      N      0.500080000000     0.091930000000     0.748100000000    -0.163651   
N48      N      0.500250000000     0.156050000000     0.747590000000    -0.204596   
N49      N      0.342260000000     0.750730000000     0.001300000000    -0.163474   
N50      N      0.406400000000     0.750330000000     0.001850000000    -0.20353    
N51      N      0.156310000000     0.748320000000     0.497800000000    -0.163541   
N52      N      0.092170000000     0.747470000000     0.497090000000    -0.204395   
N53      N      0.247050000000     0.906810000000     0.502290000000    -0.163514   
N54      N      0.246600000000     0.842620000000     0.502730000000    -0.204451   
N55      N      0.249270000000     0.592560000000     0.997530000000    -0.163993   
N56      N      0.249690000000     0.656790000000     0.996460000000    -0.204384   
N57      N      0.247910000000     0.998600000000     0.342860000000    -0.164818   
N58      N      0.247710000000     0.999110000000     0.407100000000    -0.20513    
N59      N      0.250460000000     0.498610000000     0.157050000000    -0.163708   
N60      N      0.249420000000     0.499350000000     0.092830000000    -0.204085   
N61      N      0.994890000000     0.745010000000     0.341660000000    -0.164453   
N62      N      0.994570000000     0.744890000000     0.405850000000    -0.206149   
N63      N      0.502590000000     0.751160000000     0.155800000000    -0.163758   
N64      N      0.502210000000     0.752280000000     0.091570000000    -0.203753   
N65      N      0.156500000000     0.997840000000     0.247780000000    -0.164589   
N66      N      0.092310000000     0.997170000000     0.247190000000    -0.204947   
N67      N      0.406420000000     0.498590000000     0.251890000000    -0.16415    
N68      N      0.342220000000     0.498470000000     0.251230000000    -0.204217   
N69      N      0.998390000000     0.841870000000     0.251140000000    -0.165021   
N70      N      0.998920000000     0.906010000000     0.251330000000    -0.206225   
N71      N      0.500080000000     0.591920000000     0.248100000000    -0.164037   
N72      N      0.500250000000     0.656050000000     0.247580000000    -0.204591   
N73      N      0.342260000000     0.750730000000     0.501310000000    -0.163841   
N74      N      0.406400000000     0.750330000000     0.501850000000    -0.204209   
N75      N      0.156310000000     0.748320000000     0.997800000000    -0.163982   
N76      N      0.092170000000     0.747470000000     0.997090000000    -0.204813   
N77      N      0.247050000000     0.906810000000     0.002290000000    -0.16307    
N78      N      0.246600000000     0.842620000000     0.002740000000    -0.204003   
N79      N      0.249270000000     0.592560000000     0.497530000000    -0.163577   
N80      N      0.249690000000     0.656790000000     0.496460000000    -0.203921   
N81      N      0.247910000000     0.998600000000     0.842860000000    -0.164821   
N82      N      0.247710000000     0.999110000000     0.907100000000    -0.205176   
N83      N      0.250460000000     0.498610000000     0.657050000000    -0.163713   
N84      N      0.249420000000     0.499350000000     0.592830000000    -0.20405    
N85      N      0.994890000000     0.745010000000     0.841660000000    -0.164468   
N86      N      0.994570000000     0.744890000000     0.905850000000    -0.20622    
N87      N      0.502590000000     0.751160000000     0.655800000000    -0.16376    
N88      N      0.502210000000     0.752280000000     0.591570000000    -0.203791   
N89      N      0.156500000000     0.997840000000     0.747780000000    -0.164595   
N90      N      0.092310000000     0.997170000000     0.747190000000    -0.204955   
N91      N      0.406420000000     0.498590000000     0.751890000000    -0.164156   
N92      N      0.342220000000     0.498470000000     0.751230000000    -0.204219   
N93      N      0.998390000000     0.841870000000     0.751150000000    -0.165014   
N94      N      0.998920000000     0.906010000000     0.751330000000    -0.206228   
N95      N      0.500080000000     0.591920000000     0.748100000000    -0.164043   
N96      N      0.500250000000     0.656050000000     0.747590000000    -0.204608   
N97      N      0.842260000000     0.250730000000     0.001300000000    -0.163477   
N98      N      0.906400000000     0.250330000000     0.001850000000    -0.203492   
N99      N      0.656310000000     0.248320000000     0.497800000000    -0.163542   
N100     N      0.592170000000     0.247470000000     0.497090000000    -0.204557   
N101     N      0.747050000000     0.406810000000     0.502290000000    -0.163412   
N102     N      0.746600000000     0.342620000000     0.502730000000    -0.204435   
N103     N      0.749270000000     0.092560000000     0.997530000000    -0.16381    
N104     N      0.749690000000     0.156790000000     0.996460000000    -0.204346   
N105     N      0.747910000000     0.498600000000     0.342860000000    -0.163394   
N106     N      0.747710000000     0.499110000000     0.407100000000    -0.2038     
N107     N      0.750460000000     0.998620000000     0.157050000000    -0.165015   
N108     N      0.749420000000     0.999350000000     0.092830000000    -0.208975   
N109     N      0.494890000000     0.245010000000     0.341660000000    -0.163512   
N110     N      0.494560000000     0.244890000000     0.405850000000    -0.204827   
N111     N      0.002590000000     0.251170000000     0.155800000000    -0.162738   
N112     N      0.002210000000     0.252280000000     0.091570000000    -0.202718   
N113     N      0.656500000000     0.497840000000     0.247780000000    -0.163205   
N114     N      0.592310000000     0.497170000000     0.247190000000    -0.203761   
N115     N      0.906420000000     0.998590000000     0.251890000000    -0.165513   
N116     N      0.842220000000     0.998460000000     0.251230000000    -0.205611   
N117     N      0.498390000000     0.341870000000     0.251140000000    -0.164121   
N118     N      0.498920000000     0.406010000000     0.251330000000    -0.204823   
N119     N      0.000080000000     0.091930000000     0.248100000000    -0.160424   
N120     N      0.000250000000     0.156050000000     0.247580000000    -0.20132    
N121     N      0.842260000000     0.250730000000     0.501310000000    -0.16384    
N122     N      0.906400000000     0.250330000000     0.501850000000    -0.204165   
N123     N      0.656310000000     0.248320000000     0.997800000000    -0.163981   
N124     N      0.592170000000     0.247470000000     0.997090000000    -0.204972   
N125     N      0.747050000000     0.406810000000     0.002290000000    -0.162972   
N126     N      0.746600000000     0.342620000000     0.002740000000    -0.20399    
N127     N      0.749270000000     0.092560000000     0.497530000000    -0.163398   
N128     N      0.749690000000     0.156790000000     0.496460000000    -0.203887   
N129     N      0.747910000000     0.498600000000     0.842860000000    -0.163395   
N130     N      0.747710000000     0.499110000000     0.907100000000    -0.203844   
N131     N      0.750460000000     0.998620000000     0.657050000000    -0.165024   
N132     N      0.749420000000     0.999350000000     0.592830000000    -0.208958   
N133     N      0.494890000000     0.245010000000     0.841660000000    -0.163528   
N134     N      0.494560000000     0.244890000000     0.905850000000    -0.204901   
N135     N      0.002590000000     0.251170000000     0.655800000000    -0.162738   
N136     N      0.002210000000     0.252280000000     0.591570000000    -0.202754   
N137     N      0.656500000000     0.497840000000     0.747780000000    -0.163208   
N138     N      0.592310000000     0.497170000000     0.747190000000    -0.203767   
N139     N      0.906420000000     0.998590000000     0.751890000000    -0.165522   
N140     N      0.842220000000     0.998460000000     0.751230000000    -0.205615   
N141     N      0.498390000000     0.341870000000     0.751150000000    -0.164113   
N142     N      0.498920000000     0.406010000000     0.751330000000    -0.204827   
N143     N      0.000080000000     0.091930000000     0.748100000000    -0.160429   
N144     N      0.000250000000     0.156050000000     0.747590000000    -0.201337   
N145     N      0.842260000000     0.750730000000     0.001300000000    -0.163472   
N146     N      0.906400000000     0.750330000000     0.001850000000    -0.203539   
N147     N      0.656310000000     0.748320000000     0.497800000000    -0.163553   
N148     N      0.592170000000     0.747470000000     0.497090000000    -0.204571   
N149     N      0.747050000000     0.906810000000     0.502290000000    -0.163537   
N150     N      0.746600000000     0.842620000000     0.502730000000    -0.204449   
N151     N      0.749270000000     0.592560000000     0.997530000000    -0.163953   
N152     N      0.749690000000     0.656790000000     0.996460000000    -0.204415   
N153     N      0.747910000000     0.998600000000     0.342860000000    -0.164811   
N154     N      0.747710000000     0.999110000000     0.407100000000    -0.20519    
N155     N      0.750460000000     0.498610000000     0.157050000000    -0.163715   
N156     N      0.749420000000     0.499350000000     0.092830000000    -0.204099   
N157     N      0.494890000000     0.745010000000     0.341660000000    -0.163522   
N158     N      0.494560000000     0.744890000000     0.405850000000    -0.204846   
N159     N      0.002590000000     0.751160000000     0.155800000000    -0.162773   
N160     N      0.002210000000     0.752280000000     0.091570000000    -0.202726   
N161     N      0.656500000000     0.997840000000     0.247780000000    -0.164605   
N162     N      0.592310000000     0.997170000000     0.247190000000    -0.205026   
N163     N      0.906420000000     0.498590000000     0.251890000000    -0.164253   
N164     N      0.842220000000     0.498470000000     0.251230000000    -0.204219   
N165     N      0.498390000000     0.841870000000     0.251140000000    -0.164119   
N166     N      0.498920000000     0.906010000000     0.251330000000    -0.204791   
N167     N      0.000080000000     0.591920000000     0.248100000000    -0.160812   
N168     N      0.000250000000     0.656050000000     0.247580000000    -0.201333   
N169     N      0.842260000000     0.750730000000     0.501310000000    -0.163838   
N170     N      0.906400000000     0.750330000000     0.501850000000    -0.204217   
N171     N      0.656310000000     0.748320000000     0.997800000000    -0.163995   
N172     N      0.592170000000     0.747470000000     0.997090000000    -0.204989   
N173     N      0.747050000000     0.906810000000     0.002290000000    -0.163093   
N174     N      0.746600000000     0.842620000000     0.002740000000    -0.204001   
N175     N      0.749270000000     0.592560000000     0.497530000000    -0.163538   
N176     N      0.749690000000     0.656790000000     0.496460000000    -0.203953   
N177     N      0.747910000000     0.998600000000     0.842860000000    -0.164814   
N178     N      0.747710000000     0.999110000000     0.907100000000    -0.205235   
N179     N      0.750460000000     0.498610000000     0.657050000000    -0.163719   
N180     N      0.749420000000     0.499350000000     0.592830000000    -0.204064   
N181     N      0.494890000000     0.745010000000     0.841660000000    -0.163539   
N182     N      0.494560000000     0.744890000000     0.905850000000    -0.20492    
N183     N      0.002590000000     0.751160000000     0.655800000000    -0.162773   
N184     N      0.002210000000     0.752280000000     0.591570000000    -0.202762   
N185     N      0.656500000000     0.997840000000     0.747780000000    -0.164611   
N186     N      0.592310000000     0.997170000000     0.747190000000    -0.205035   
N187     N      0.906420000000     0.498590000000     0.751890000000    -0.16426    
N188     N      0.842220000000     0.498470000000     0.751230000000    -0.204221   
N189     N      0.498390000000     0.841870000000     0.751150000000    -0.164111   
N190     N      0.498920000000     0.906010000000     0.751330000000    -0.204794   
N191     N      0.000080000000     0.591920000000     0.748100000000    -0.160817   
N192     N      0.000250000000     0.656050000000     0.747590000000    -0.20135    
O1       O      0.495570000000     0.045370000000     0.223340000000    -0.389547   
O2       O      0.499490000000     0.451690000000     0.224700000000    -0.395159   
O3       O      0.451880000000     0.495840000000     0.225350000000    -0.396102   
O4       O      0.045390000000     0.001120000000     0.222670000000    -0.384467   
O5       O      0.046920000000     0.995960000000     0.274010000000    -0.378414   
O6       O      0.453400000000     0.502650000000     0.276480000000    -0.391172   
O7       O      0.998640000000     0.452630000000     0.276340000000    -0.391384   
O8       O      0.003870000000     0.046130000000     0.274270000000    -0.386908   
O9       O      0.473850000000     0.201820000000     0.247390000000    -0.396001   
O10      O      0.473290000000     0.295590000000     0.245600000000    -0.392705   
O11      O      0.475570000000     0.247190000000     0.200840000000    -0.397088   
O12      O      0.471420000000     0.250030000000     0.294300000000    -0.389948   
O13      O      0.022650000000     0.244380000000     0.296730000000    -0.388022   
O14      O      0.026680000000     0.253770000000     0.203230000000    -0.386262   
O15      O      0.024040000000     0.295790000000     0.254910000000    -0.389095   
O16      O      0.025500000000     0.202480000000     0.247380000000    -0.378669   
O17      O      0.296010000000     0.473240000000     0.246080000000    -0.381792   
O18      O      0.202810000000     0.473010000000     0.253810000000    -0.391612   
O19      O      0.245490000000     0.473210000000     0.203280000000    -0.389594   
O20      O      0.253360000000     0.473160000000     0.296690000000    -0.39096    
O21      O      0.243480000000     0.023770000000     0.296440000000    -0.386361   
O22      O      0.255200000000     0.023850000000     0.203400000000    -0.387833   
O23      O      0.202710000000     0.023610000000     0.243900000000    -0.384968   
O24      O      0.295940000000     0.023860000000     0.255900000000    -0.38995    
O25      O      0.223740000000     0.046650000000     0.004120000000    -0.389369   
O26      O      0.222510000000     0.453320000000     0.996220000000    -0.390566   
O27      O      0.223510000000     0.495730000000     0.046800000000    -0.381229   
O28      O      0.222760000000     0.004150000000     0.453550000000    -0.377139   
O29      O      0.273230000000     0.993640000000     0.453200000000    -0.39284    
O30      O      0.274220000000     0.505030000000     0.046370000000    -0.393699   
O31      O      0.273180000000     0.452790000000     0.505770000000    -0.390742   
O32      O      0.274240000000     0.045940000000     0.493780000000    -0.387183   
O33      O      0.504670000000     0.276320000000     0.044140000000    -0.385399   
O34      O      0.494540000000     0.272460000000     0.450820000000    -0.393719   
O35      O      0.452920000000     0.275430000000     0.500500000000    -0.394946   
O36      O      0.046350000000     0.273420000000     0.992350000000    -0.390317   
O37      O      0.045690000000     0.222650000000     0.001540000000    -0.388545   
O38      O      0.452070000000     0.223780000000     0.500440000000    -0.382072   
O39      O      0.999880000000     0.221180000000     0.453040000000    -0.394777   
O40      O      0.997760000000     0.225240000000     0.046600000000    -0.396319   
O41      O      0.246430000000     0.201970000000     0.023400000000    -0.397771   
O42      O      0.251010000000     0.295540000000     0.026860000000    -0.394275   
O43      O      0.202010000000     0.249300000000     0.024410000000    -0.389913   
O44      O      0.295630000000     0.246020000000     0.025850000000    -0.39343    
O45      O      0.296500000000     0.254830000000     0.475020000000    -0.389467   
O46      O      0.202930000000     0.248890000000     0.472760000000    -0.388877   
O47      O      0.245880000000     0.297470000000     0.475540000000    -0.383412   
O48      O      0.253380000000     0.204050000000     0.472300000000    -0.378645   
O49      O      0.405200000000     0.210300000000     0.039950000000    -0.283395   
O50      O      0.092840000000     0.214900000000     0.041790000000    -0.280614   
O51      O      0.206260000000     0.343450000000     0.964880000000    -0.281745   
O52      O      0.289270000000     0.155290000000     0.957890000000    -0.281335   
O53      O      0.211010000000     0.040520000000     0.405840000000    -0.27908    
O54      O      0.212490000000     0.458140000000     0.093780000000    -0.280065   
O55      O      0.452600000000     0.280910000000     0.404910000000    -0.288647   
O56      O      0.543330000000     0.289190000000     0.092550000000    -0.280426   
O57      O      0.093210000000     0.456960000000     0.285180000000    -0.276478   
O58      O      0.343520000000     0.462480000000     0.209210000000    -0.281599   
O59      O      0.535890000000     0.404880000000     0.292450000000    -0.286391   
O60      O      0.039990000000     0.155610000000     0.286040000000    -0.281687   
O61      O      0.495570000000     0.045370000000     0.723340000000    -0.38956    
O62      O      0.499490000000     0.451690000000     0.724700000000    -0.395182   
O63      O      0.451880000000     0.495840000000     0.725350000000    -0.396123   
O64      O      0.045390000000     0.001120000000     0.722670000000    -0.384474   
O65      O      0.046920000000     0.995960000000     0.774010000000    -0.378428   
O66      O      0.453400000000     0.502650000000     0.776480000000    -0.391191   
O67      O      0.998640000000     0.452630000000     0.776340000000    -0.391396   
O68      O      0.003870000000     0.046130000000     0.774270000000    -0.386924   
O69      O      0.473850000000     0.201820000000     0.747390000000    -0.396008   
O70      O      0.473290000000     0.295590000000     0.745590000000    -0.392678   
O71      O      0.475570000000     0.247190000000     0.700840000000    -0.397085   
O72      O      0.471420000000     0.250030000000     0.794300000000    -0.389994   
O73      O      0.022650000000     0.244380000000     0.796740000000    -0.387994   
O74      O      0.026680000000     0.253770000000     0.703230000000    -0.386249   
O75      O      0.024040000000     0.295790000000     0.754910000000    -0.389075   
O76      O      0.025500000000     0.202480000000     0.747380000000    -0.378666   
O77      O      0.296010000000     0.473240000000     0.746080000000    -0.381797   
O78      O      0.202810000000     0.473010000000     0.753810000000    -0.391618   
O79      O      0.245490000000     0.473210000000     0.703280000000    -0.389602   
O80      O      0.253360000000     0.473160000000     0.796690000000    -0.390967   
O81      O      0.243480000000     0.023770000000     0.796440000000    -0.386362   
O82      O      0.255200000000     0.023850000000     0.703400000000    -0.387831   
O83      O      0.202710000000     0.023610000000     0.743900000000    -0.384967   
O84      O      0.295940000000     0.023860000000     0.755900000000    -0.389949   
O85      O      0.223740000000     0.046650000000     0.504120000000    -0.390293   
O86      O      0.222510000000     0.453320000000     0.496220000000    -0.388693   
O87      O      0.223510000000     0.495730000000     0.546790000000    -0.381284   
O88      O      0.222760000000     0.004150000000     0.953550000000    -0.378054   
O89      O      0.273230000000     0.993640000000     0.953200000000    -0.392756   
O90      O      0.274220000000     0.505030000000     0.546370000000    -0.394635   
O91      O      0.273180000000     0.452790000000     0.005770000000    -0.390094   
O92      O      0.274240000000     0.045940000000     0.993780000000    -0.386834   
O93      O      0.504670000000     0.276320000000     0.544140000000    -0.386252   
O94      O      0.494540000000     0.272460000000     0.950820000000    -0.393599   
O95      O      0.452920000000     0.275430000000     0.000500000000    -0.393803   
O96      O      0.046350000000     0.273420000000     0.492350000000    -0.390677   
O97      O      0.045690000000     0.222650000000     0.501540000000    -0.389604   
O98      O      0.452070000000     0.223780000000     0.000440000000    -0.381895   
O99      O      0.999880000000     0.221180000000     0.953040000000    -0.3956     
O100     O      0.997760000000     0.225240000000     0.546600000000    -0.396194   
O101     O      0.246430000000     0.201970000000     0.523400000000    -0.398701   
O102     O      0.251010000000     0.295540000000     0.526860000000    -0.39404    
O103     O      0.202010000000     0.249300000000     0.524410000000    -0.390896   
O104     O      0.295630000000     0.246020000000     0.525860000000    -0.393029   
O105     O      0.296500000000     0.254830000000     0.975020000000    -0.39055    
O106     O      0.202930000000     0.248890000000     0.972760000000    -0.388647   
O107     O      0.245880000000     0.297470000000     0.975540000000    -0.384413   
O108     O      0.253380000000     0.204050000000     0.972310000000    -0.378597   
O109     O      0.405200000000     0.210300000000     0.539950000000    -0.283525   
O110     O      0.092840000000     0.214900000000     0.541790000000    -0.28058    
O111     O      0.206260000000     0.343450000000     0.464880000000    -0.281826   
O112     O      0.289270000000     0.155290000000     0.457890000000    -0.281334   
O113     O      0.211010000000     0.040520000000     0.905840000000    -0.279205   
O114     O      0.212490000000     0.458140000000     0.593780000000    -0.280155   
O115     O      0.452600000000     0.280910000000     0.904910000000    -0.288798   
O116     O      0.543330000000     0.289190000000     0.592550000000    -0.280546   
O117     O      0.093210000000     0.456960000000     0.785180000000    -0.276507   
O118     O      0.343520000000     0.462480000000     0.709210000000    -0.281614   
O119     O      0.535890000000     0.404880000000     0.792450000000    -0.286393   
O120     O      0.039990000000     0.155610000000     0.786040000000    -0.281716   
O121     O      0.495570000000     0.545370000000     0.223340000000    -0.392599   
O122     O      0.499490000000     0.951690000000     0.224700000000    -0.394626   
O123     O      0.451880000000     0.995840000000     0.225350000000    -0.394872   
O124     O      0.045390000000     0.501120000000     0.222670000000    -0.390954   
O125     O      0.046920000000     0.495960000000     0.274010000000    -0.379604   
O126     O      0.453400000000     0.002650000000     0.276480000000    -0.384694   
O127     O      0.998640000000     0.952630000000     0.276340000000    -0.390845   
O128     O      0.003870000000     0.546130000000     0.274270000000    -0.389945   
O129     O      0.473850000000     0.701820000000     0.247390000000    -0.396152   
O130     O      0.473290000000     0.795590000000     0.245600000000    -0.392617   
O131     O      0.475570000000     0.747190000000     0.200840000000    -0.397114   
O132     O      0.471420000000     0.750030000000     0.294300000000    -0.389972   
O133     O      0.022650000000     0.744380000000     0.296730000000    -0.388048   
O134     O      0.026680000000     0.753770000000     0.203230000000    -0.386281   
O135     O      0.024040000000     0.795790000000     0.254910000000    -0.389008   
O136     O      0.025500000000     0.702480000000     0.247380000000    -0.378812   
O137     O      0.296010000000     0.973240000000     0.246080000000    -0.380732   
O138     O      0.202810000000     0.973010000000     0.253810000000    -0.390587   
O139     O      0.245490000000     0.973210000000     0.203280000000    -0.388554   
O140     O      0.253360000000     0.973160000000     0.296690000000    -0.389947   
O141     O      0.243480000000     0.523770000000     0.296440000000    -0.389954   
O142     O      0.255200000000     0.523850000000     0.203400000000    -0.391457   
O143     O      0.202710000000     0.523610000000     0.243900000000    -0.388572   
O144     O      0.295940000000     0.523860000000     0.255900000000    -0.393571   
O145     O      0.223740000000     0.546650000000     0.004120000000    -0.388871   
O146     O      0.222510000000     0.953320000000     0.996220000000    -0.393387   
O147     O      0.223510000000     0.995730000000     0.046800000000    -0.38828    
O148     O      0.222760000000     0.504150000000     0.453550000000    -0.380158   
O149     O      0.273230000000     0.493630000000     0.453200000000    -0.393915   
O150     O      0.274220000000     0.005030000000     0.046370000000    -0.392257   
O151     O      0.273180000000     0.952800000000     0.505770000000    -0.390438   
O152     O      0.274240000000     0.545940000000     0.493780000000    -0.390115   
O153     O      0.504670000000     0.776320000000     0.044140000000    -0.385447   
O154     O      0.494540000000     0.772460000000     0.450820000000    -0.393764   
O155     O      0.452920000000     0.775430000000     0.500500000000    -0.395104   
O156     O      0.046350000000     0.773420000000     0.992350000000    -0.390379   
O157     O      0.045690000000     0.722650000000     0.001540000000    -0.388601   
O158     O      0.452070000000     0.723780000000     0.500440000000    -0.382052   
O159     O      0.999880000000     0.721180000000     0.453040000000    -0.394865   
O160     O      0.997760000000     0.725240000000     0.046600000000    -0.396382   
O161     O      0.246430000000     0.701970000000     0.023400000000    -0.39773    
O162     O      0.251010000000     0.795540000000     0.026860000000    -0.394294   
O163     O      0.202010000000     0.749310000000     0.024410000000    -0.389918   
O164     O      0.295630000000     0.746020000000     0.025850000000    -0.393434   
O165     O      0.296500000000     0.754830000000     0.475020000000    -0.3895     
O166     O      0.202930000000     0.748890000000     0.472760000000    -0.388895   
O167     O      0.245880000000     0.797470000000     0.475540000000    -0.383427   
O168     O      0.253380000000     0.704050000000     0.472300000000    -0.378588   
O169     O      0.405200000000     0.710300000000     0.039950000000    -0.283548   
O170     O      0.092840000000     0.714890000000     0.041790000000    -0.280765   
O171     O      0.206260000000     0.843450000000     0.964880000000    -0.281811   
O172     O      0.289270000000     0.655290000000     0.957890000000    -0.281445   
O173     O      0.211010000000     0.540520000000     0.405840000000    -0.279229   
O174     O      0.212490000000     0.958140000000     0.093780000000    -0.280765   
O175     O      0.452600000000     0.780910000000     0.404910000000    -0.288681   
O176     O      0.543330000000     0.789190000000     0.092550000000    -0.28046    
O177     O      0.093210000000     0.956960000000     0.285180000000    -0.276731   
O178     O      0.343520000000     0.962480000000     0.209210000000    -0.281542   
O179     O      0.535890000000     0.904870000000     0.292450000000    -0.2865     
O180     O      0.039990000000     0.655610000000     0.286040000000    -0.281787   
O181     O      0.495570000000     0.545370000000     0.723340000000    -0.39262    
O182     O      0.499490000000     0.951690000000     0.724700000000    -0.394648   
O183     O      0.451880000000     0.995840000000     0.725350000000    -0.39489    
O184     O      0.045390000000     0.501120000000     0.722670000000    -0.390975   
O185     O      0.046920000000     0.495960000000     0.774010000000    -0.379622   
O186     O      0.453400000000     0.002650000000     0.776480000000    -0.384701   
O187     O      0.998640000000     0.952630000000     0.776340000000    -0.390857   
O188     O      0.003870000000     0.546130000000     0.774270000000    -0.389966   
O189     O      0.473850000000     0.701820000000     0.747390000000    -0.396159   
O190     O      0.473290000000     0.795590000000     0.745590000000    -0.39259    
O191     O      0.475570000000     0.747190000000     0.700840000000    -0.397111   
O192     O      0.471420000000     0.750030000000     0.794300000000    -0.390017   
O193     O      0.022650000000     0.744380000000     0.796740000000    -0.38802    
O194     O      0.026680000000     0.753770000000     0.703230000000    -0.386267   
O195     O      0.024040000000     0.795790000000     0.754910000000    -0.388988   
O196     O      0.025500000000     0.702480000000     0.747380000000    -0.378809   
O197     O      0.296010000000     0.973240000000     0.746080000000    -0.380736   
O198     O      0.202810000000     0.973010000000     0.753810000000    -0.390591   
O199     O      0.245490000000     0.973210000000     0.703280000000    -0.388559   
O200     O      0.253360000000     0.973160000000     0.796690000000    -0.389953   
O201     O      0.243480000000     0.523770000000     0.796440000000    -0.389962   
O202     O      0.255200000000     0.523850000000     0.703400000000    -0.391465   
O203     O      0.202710000000     0.523610000000     0.743900000000    -0.388578   
O204     O      0.295940000000     0.523860000000     0.755900000000    -0.393577   
O205     O      0.223740000000     0.546650000000     0.504120000000    -0.389804   
O206     O      0.222510000000     0.953320000000     0.496220000000    -0.391517   
O207     O      0.223510000000     0.995730000000     0.546790000000    -0.388373   
O208     O      0.222760000000     0.504150000000     0.953550000000    -0.381088   
O209     O      0.273230000000     0.493630000000     0.953200000000    -0.393831   
O210     O      0.274220000000     0.005030000000     0.546370000000    -0.39319    
O211     O      0.273180000000     0.952800000000     0.005770000000    -0.389786   
O212     O      0.274240000000     0.545940000000     0.993780000000    -0.389765   
O213     O      0.504670000000     0.776320000000     0.544140000000    -0.386307   
O214     O      0.494540000000     0.772460000000     0.950820000000    -0.393643   
O215     O      0.452920000000     0.775430000000     0.000500000000    -0.393953   
O216     O      0.046350000000     0.773420000000     0.492350000000    -0.390742   
O217     O      0.045690000000     0.722650000000     0.501540000000    -0.389669   
O218     O      0.452070000000     0.723780000000     0.000440000000    -0.381873   
O219     O      0.999880000000     0.721180000000     0.953040000000    -0.395695   
O220     O      0.997760000000     0.725240000000     0.546600000000    -0.396257   
O221     O      0.246430000000     0.701970000000     0.523400000000    -0.398667   
O222     O      0.251010000000     0.795540000000     0.526860000000    -0.394057   
O223     O      0.202010000000     0.749310000000     0.524410000000    -0.390909   
O224     O      0.295630000000     0.746020000000     0.525860000000    -0.393031   
O225     O      0.296500000000     0.754830000000     0.975020000000    -0.390591   
O226     O      0.202930000000     0.748890000000     0.972760000000    -0.388663   
O227     O      0.245880000000     0.797470000000     0.975540000000    -0.384434   
O228     O      0.253380000000     0.704050000000     0.972310000000    -0.378538   
O229     O      0.405200000000     0.710300000000     0.539950000000    -0.283679   
O230     O      0.092840000000     0.714890000000     0.541790000000    -0.280731   
O231     O      0.206260000000     0.843450000000     0.464880000000    -0.281892   
O232     O      0.289270000000     0.655290000000     0.457890000000    -0.281444   
O233     O      0.211010000000     0.540520000000     0.905840000000    -0.279355   
O234     O      0.212490000000     0.958140000000     0.593780000000    -0.280858   
O235     O      0.452600000000     0.780910000000     0.904910000000    -0.288833   
O236     O      0.543330000000     0.789190000000     0.592550000000    -0.280581   
O237     O      0.093210000000     0.956960000000     0.785180000000    -0.276759   
O238     O      0.343520000000     0.962480000000     0.709210000000    -0.281556   
O239     O      0.535890000000     0.904870000000     0.792450000000    -0.286502   
O240     O      0.039990000000     0.655610000000     0.786040000000    -0.281817   
O241     O      0.995570000000     0.045370000000     0.223340000000    -0.388556   
O242     O      0.999490000000     0.451690000000     0.224700000000    -0.395418   
O243     O      0.951880000000     0.495840000000     0.225350000000    -0.395814   
O244     O      0.545390000000     0.001120000000     0.222670000000    -0.386389   
O245     O      0.546920000000     0.995960000000     0.274010000000    -0.378185   
O246     O      0.953390000000     0.502650000000     0.276480000000    -0.392983   
O247     O      0.498640000000     0.452630000000     0.276340000000    -0.388923   
O248     O      0.503870000000     0.046130000000     0.274270000000    -0.389444   
O249     O      0.973840000000     0.201820000000     0.247390000000    -0.394748   
O250     O      0.973290000000     0.295590000000     0.245600000000    -0.39201    
O251     O      0.975570000000     0.247190000000     0.200840000000    -0.399208   
O252     O      0.971420000000     0.250030000000     0.294300000000    -0.389361   
O253     O      0.522650000000     0.244380000000     0.296730000000    -0.390298   
O254     O      0.526680000000     0.253770000000     0.203230000000    -0.385873   
O255     O      0.524040000000     0.295790000000     0.254910000000    -0.391363   
O256     O      0.525500000000     0.202480000000     0.247380000000    -0.3815     
O257     O      0.796010000000     0.473240000000     0.246080000000    -0.381797   
O258     O      0.702810000000     0.473010000000     0.253810000000    -0.391643   
O259     O      0.745490000000     0.473210000000     0.203280000000    -0.389607   
O260     O      0.753370000000     0.473160000000     0.296690000000    -0.390934   
O261     O      0.743480000000     0.023770000000     0.296440000000    -0.386364   
O262     O      0.755200000000     0.023850000000     0.203400000000    -0.38785    
O263     O      0.702710000000     0.023610000000     0.243900000000    -0.384995   
O264     O      0.795940000000     0.023860000000     0.255900000000    -0.389967   
O265     O      0.723740000000     0.046650000000     0.004120000000    -0.389365   
O266     O      0.722510000000     0.453320000000     0.996220000000    -0.390611   
O267     O      0.723510000000     0.495730000000     0.046800000000    -0.381283   
O268     O      0.722760000000     0.004150000000     0.453550000000    -0.377145   
O269     O      0.773220000000     0.993640000000     0.453200000000    -0.393133   
O270     O      0.774220000000     0.505030000000     0.046370000000    -0.393738   
O271     O      0.773180000000     0.452790000000     0.505770000000    -0.390776   
O272     O      0.774250000000     0.045940000000     0.493780000000    -0.387078   
O273     O      0.004670000000     0.276320000000     0.044140000000    -0.384042   
O274     O      0.994540000000     0.272460000000     0.450820000000    -0.39372    
O275     O      0.952920000000     0.275430000000     0.500500000000    -0.394718   
O276     O      0.546350000000     0.273420000000     0.992350000000    -0.392267   
O277     O      0.545690000000     0.222650000000     0.001540000000    -0.390437   
O278     O      0.952070000000     0.223780000000     0.500440000000    -0.381949   
O279     O      0.499880000000     0.221180000000     0.453040000000    -0.394139   
O280     O      0.497760000000     0.225240000000     0.046600000000    -0.393953   
O281     O      0.746430000000     0.201970000000     0.023400000000    -0.397797   
O282     O      0.751010000000     0.295540000000     0.026860000000    -0.394304   
O283     O      0.702010000000     0.249300000000     0.024410000000    -0.389968   
O284     O      0.795620000000     0.246020000000     0.025850000000    -0.393454   
O285     O      0.796500000000     0.254830000000     0.475020000000    -0.389355   
O286     O      0.702930000000     0.248890000000     0.472760000000    -0.388992   
O287     O      0.745880000000     0.297470000000     0.475540000000    -0.383429   
O288     O      0.753380000000     0.204050000000     0.472300000000    -0.378651   
O289     O      0.905200000000     0.210300000000     0.039950000000    -0.283496   
O290     O      0.592840000000     0.214900000000     0.041790000000    -0.280825   
O291     O      0.706260000000     0.343450000000     0.964880000000    -0.281772   
O292     O      0.789270000000     0.155290000000     0.957890000000    -0.281366   
O293     O      0.711010000000     0.040520000000     0.405840000000    -0.279163   
O294     O      0.712490000000     0.458140000000     0.093780000000    -0.280169   
O295     O      0.952590000000     0.280910000000     0.404910000000    -0.288379   
O296     O      0.043330000000     0.289190000000     0.092550000000    -0.280422   
O297     O      0.593210000000     0.456960000000     0.285180000000    -0.276636   
O298     O      0.843520000000     0.462480000000     0.209210000000    -0.281618   
O299     O      0.035890000000     0.404880000000     0.292450000000    -0.286398   
O300     O      0.539990000000     0.155610000000     0.286040000000    -0.28183    
O301     O      0.995570000000     0.045370000000     0.723340000000    -0.388569   
O302     O      0.999490000000     0.451690000000     0.724700000000    -0.395442   
O303     O      0.951880000000     0.495840000000     0.725350000000    -0.395834   
O304     O      0.545390000000     0.001120000000     0.722670000000    -0.386396   
O305     O      0.546920000000     0.995960000000     0.774010000000    -0.378199   
O306     O      0.953390000000     0.502650000000     0.776480000000    -0.393002   
O307     O      0.498640000000     0.452630000000     0.776340000000    -0.388937   
O308     O      0.503870000000     0.046130000000     0.774270000000    -0.389459   
O309     O      0.973840000000     0.201820000000     0.747390000000    -0.394756   
O310     O      0.973290000000     0.295590000000     0.745590000000    -0.391983   
O311     O      0.975570000000     0.247190000000     0.700840000000    -0.399207   
O312     O      0.971420000000     0.250030000000     0.794300000000    -0.389407   
O313     O      0.522650000000     0.244380000000     0.796740000000    -0.390269   
O314     O      0.526680000000     0.253770000000     0.703230000000    -0.385858   
O315     O      0.524040000000     0.295790000000     0.754910000000    -0.391343   
O316     O      0.525500000000     0.202480000000     0.747380000000    -0.381497   
O317     O      0.796010000000     0.473240000000     0.746080000000    -0.381802   
O318     O      0.702810000000     0.473010000000     0.753810000000    -0.39165    
O319     O      0.745490000000     0.473210000000     0.703280000000    -0.389615   
O320     O      0.753370000000     0.473160000000     0.796690000000    -0.390942   
O321     O      0.743480000000     0.023770000000     0.796440000000    -0.386365   
O322     O      0.755200000000     0.023850000000     0.703400000000    -0.387848   
O323     O      0.702710000000     0.023610000000     0.743900000000    -0.384993   
O324     O      0.795940000000     0.023860000000     0.755900000000    -0.389966   
O325     O      0.723740000000     0.046650000000     0.504120000000    -0.39029    
O326     O      0.722510000000     0.453320000000     0.496220000000    -0.388737   
O327     O      0.723510000000     0.495730000000     0.546790000000    -0.381338   
O328     O      0.722760000000     0.004150000000     0.953550000000    -0.37806    
O329     O      0.773220000000     0.993640000000     0.953200000000    -0.393049   
O330     O      0.774220000000     0.505030000000     0.546370000000    -0.394673   
O331     O      0.773180000000     0.452790000000     0.005770000000    -0.390129   
O332     O      0.774250000000     0.045940000000     0.993780000000    -0.386729   
O333     O      0.004670000000     0.276320000000     0.544140000000    -0.384888   
O334     O      0.994540000000     0.272460000000     0.950820000000    -0.393601   
O335     O      0.952920000000     0.275430000000     0.000500000000    -0.393578   
O336     O      0.546350000000     0.273420000000     0.492350000000    -0.392635   
O337     O      0.545690000000     0.222650000000     0.501540000000    -0.391505   
O338     O      0.952070000000     0.223780000000     0.000440000000    -0.381772   
O339     O      0.499880000000     0.221180000000     0.953040000000    -0.394966   
O340     O      0.497760000000     0.225240000000     0.546600000000    -0.393823   
O341     O      0.746430000000     0.201970000000     0.523400000000    -0.398726   
O342     O      0.751010000000     0.295540000000     0.526860000000    -0.394068   
O343     O      0.702010000000     0.249300000000     0.524410000000    -0.390952   
O344     O      0.795620000000     0.246020000000     0.525860000000    -0.393053   
O345     O      0.796500000000     0.254830000000     0.975020000000    -0.390438   
O346     O      0.702930000000     0.248890000000     0.972760000000    -0.388762   
O347     O      0.745880000000     0.297470000000     0.975540000000    -0.38443    
O348     O      0.753380000000     0.204050000000     0.972310000000    -0.378603   
O349     O      0.905200000000     0.210300000000     0.539950000000    -0.283626   
O350     O      0.592840000000     0.214900000000     0.541790000000    -0.280791   
O351     O      0.706260000000     0.343450000000     0.464880000000    -0.281853   
O352     O      0.789270000000     0.155290000000     0.457890000000    -0.281366   
O353     O      0.711010000000     0.040520000000     0.905840000000    -0.279287   
O354     O      0.712490000000     0.458140000000     0.593780000000    -0.280259   
O355     O      0.952590000000     0.280910000000     0.904910000000    -0.28853    
O356     O      0.043330000000     0.289190000000     0.592550000000    -0.280542   
O357     O      0.593210000000     0.456960000000     0.785180000000    -0.276664   
O358     O      0.843520000000     0.462480000000     0.709210000000    -0.281633   
O359     O      0.035890000000     0.404880000000     0.792450000000    -0.2864     
O360     O      0.539990000000     0.155610000000     0.786040000000    -0.281859   
O361     O      0.995570000000     0.545370000000     0.223340000000    -0.391593   
O362     O      0.999490000000     0.951690000000     0.224700000000    -0.394886   
O363     O      0.951880000000     0.995840000000     0.225350000000    -0.394588   
O364     O      0.545390000000     0.501120000000     0.222670000000    -0.392896   
O365     O      0.546920000000     0.495960000000     0.274010000000    -0.379379   
O366     O      0.953390000000     0.002650000000     0.276480000000    -0.386522   
O367     O      0.498640000000     0.952630000000     0.276340000000    -0.388393   
O368     O      0.503870000000     0.546130000000     0.274270000000    -0.392489   
O369     O      0.973840000000     0.701820000000     0.247390000000    -0.3949     
O370     O      0.973290000000     0.795590000000     0.245600000000    -0.391924   
O371     O      0.975570000000     0.747190000000     0.200840000000    -0.399232   
O372     O      0.971420000000     0.750030000000     0.294300000000    -0.389386   
O373     O      0.522650000000     0.744380000000     0.296730000000    -0.390321   
O374     O      0.526680000000     0.753770000000     0.203230000000    -0.385891   
O375     O      0.524040000000     0.795790000000     0.254910000000    -0.391272   
O376     O      0.525500000000     0.702480000000     0.247380000000    -0.381641   
O377     O      0.796010000000     0.973240000000     0.246080000000    -0.380738   
O378     O      0.702810000000     0.973010000000     0.253810000000    -0.390619   
O379     O      0.745490000000     0.973210000000     0.203280000000    -0.388568   
O380     O      0.753370000000     0.973160000000     0.296690000000    -0.389922   
O381     O      0.743480000000     0.523770000000     0.296440000000    -0.389955   
O382     O      0.755200000000     0.523850000000     0.203400000000    -0.391471   
O383     O      0.702710000000     0.523610000000     0.243900000000    -0.388598   
O384     O      0.795940000000     0.523860000000     0.255900000000    -0.393582   
O385     O      0.723740000000     0.546650000000     0.004120000000    -0.388867   
O386     O      0.722510000000     0.953320000000     0.996220000000    -0.393431   
O387     O      0.723510000000     0.995730000000     0.046800000000    -0.388331   
O388     O      0.722760000000     0.504150000000     0.453550000000    -0.380161   
O389     O      0.773220000000     0.493630000000     0.453200000000    -0.394209   
O390     O      0.774220000000     0.005030000000     0.046370000000    -0.392298   
O391     O      0.773180000000     0.952800000000     0.505770000000    -0.390473   
O392     O      0.774250000000     0.545940000000     0.493780000000    -0.390007   
O393     O      0.004670000000     0.776320000000     0.044140000000    -0.384093   
O394     O      0.994540000000     0.772460000000     0.450820000000    -0.393765   
O395     O      0.952920000000     0.775430000000     0.500500000000    -0.394876   
O396     O      0.546350000000     0.773420000000     0.992350000000    -0.392326   
O397     O      0.545690000000     0.722650000000     0.001540000000    -0.390491   
O398     O      0.952070000000     0.723780000000     0.500440000000    -0.381929   
O399     O      0.499880000000     0.721180000000     0.453040000000    -0.394228   
O400     O      0.497760000000     0.725240000000     0.046600000000    -0.394019   
O401     O      0.746430000000     0.701970000000     0.023400000000    -0.397755   
O402     O      0.751010000000     0.795540000000     0.026860000000    -0.394323   
O403     O      0.702010000000     0.749310000000     0.024410000000    -0.389974   
O404     O      0.795620000000     0.746020000000     0.025850000000    -0.393457   
O405     O      0.796500000000     0.754830000000     0.475020000000    -0.389388   
O406     O      0.702930000000     0.748890000000     0.472760000000    -0.38901    
O407     O      0.745880000000     0.797470000000     0.475540000000    -0.383443   
O408     O      0.753380000000     0.704050000000     0.472300000000    -0.378593   
O409     O      0.905200000000     0.710300000000     0.039950000000    -0.283649   
O410     O      0.592840000000     0.714890000000     0.041790000000    -0.280976   
O411     O      0.706260000000     0.843450000000     0.964880000000    -0.281838   
O412     O      0.789270000000     0.655290000000     0.957890000000    -0.281476   
O413     O      0.711010000000     0.540520000000     0.405840000000    -0.279313   
O414     O      0.712490000000     0.958140000000     0.093780000000    -0.280869   
O415     O      0.952590000000     0.780910000000     0.404910000000    -0.288413   
O416     O      0.043330000000     0.789190000000     0.092550000000    -0.280456   
O417     O      0.593210000000     0.956960000000     0.285180000000    -0.276888   
O418     O      0.843520000000     0.962480000000     0.209210000000    -0.281561   
O419     O      0.035890000000     0.904870000000     0.292450000000    -0.286509   
O420     O      0.539990000000     0.655610000000     0.286040000000    -0.28193    
O421     O      0.995570000000     0.545370000000     0.723340000000    -0.391613   
O422     O      0.999490000000     0.951690000000     0.724700000000    -0.394908   
O423     O      0.951880000000     0.995840000000     0.725350000000    -0.394606   
O424     O      0.545390000000     0.501120000000     0.722670000000    -0.392919   
O425     O      0.546920000000     0.495960000000     0.774010000000    -0.379396   
O426     O      0.953390000000     0.002650000000     0.776480000000    -0.386528   
O427     O      0.498640000000     0.952630000000     0.776340000000    -0.388406   
O428     O      0.503870000000     0.546130000000     0.774270000000    -0.39251    
O429     O      0.973840000000     0.701820000000     0.747390000000    -0.394908   
O430     O      0.973290000000     0.795590000000     0.745590000000    -0.391897   
O431     O      0.975570000000     0.747190000000     0.700840000000    -0.399231   
O432     O      0.971420000000     0.750030000000     0.794300000000    -0.389432   
O433     O      0.522650000000     0.744380000000     0.796740000000    -0.390292   
O434     O      0.526680000000     0.753770000000     0.703230000000    -0.385877   
O435     O      0.524040000000     0.795790000000     0.754910000000    -0.391252   
O436     O      0.525500000000     0.702480000000     0.747380000000    -0.381638   
O437     O      0.796010000000     0.973240000000     0.746080000000    -0.380742   
O438     O      0.702810000000     0.973010000000     0.753810000000    -0.390623   
O439     O      0.745490000000     0.973210000000     0.703280000000    -0.388573   
O440     O      0.753370000000     0.973160000000     0.796690000000    -0.389928   
O441     O      0.743480000000     0.523770000000     0.796440000000    -0.389962   
O442     O      0.755200000000     0.523850000000     0.703400000000    -0.391479   
O443     O      0.702710000000     0.523610000000     0.743900000000    -0.388604   
O444     O      0.795940000000     0.523860000000     0.755900000000    -0.393588   
O445     O      0.723740000000     0.546650000000     0.504120000000    -0.3898     
O446     O      0.722510000000     0.953320000000     0.496220000000    -0.391561   
O447     O      0.723510000000     0.995730000000     0.546790000000    -0.388423   
O448     O      0.722760000000     0.504150000000     0.953550000000    -0.381092   
O449     O      0.773220000000     0.493630000000     0.953200000000    -0.394125   
O450     O      0.774220000000     0.005030000000     0.546370000000    -0.393231   
O451     O      0.773180000000     0.952800000000     0.005770000000    -0.38982    
O452     O      0.774250000000     0.545940000000     0.993780000000    -0.389657   
O453     O      0.004670000000     0.776320000000     0.544140000000    -0.384945   
O454     O      0.994540000000     0.772460000000     0.950820000000    -0.393645   
O455     O      0.952920000000     0.775430000000     0.000500000000    -0.393728   
O456     O      0.546350000000     0.773420000000     0.492350000000    -0.392697   
O457     O      0.545690000000     0.722650000000     0.501540000000    -0.391568   
O458     O      0.952070000000     0.723780000000     0.000440000000    -0.38175    
O459     O      0.499880000000     0.721180000000     0.953040000000    -0.395062   
O460     O      0.497760000000     0.725240000000     0.546600000000    -0.393888   
O461     O      0.746430000000     0.701970000000     0.523400000000    -0.398693   
O462     O      0.751010000000     0.795540000000     0.526860000000    -0.394085   
O463     O      0.702010000000     0.749310000000     0.524410000000    -0.390965   
O464     O      0.795620000000     0.746020000000     0.525860000000    -0.393055   
O465     O      0.796500000000     0.754830000000     0.975020000000    -0.390478   
O466     O      0.702930000000     0.748890000000     0.972760000000    -0.388778   
O467     O      0.745880000000     0.797470000000     0.975540000000    -0.384451   
O468     O      0.753380000000     0.704050000000     0.972310000000    -0.378544   
O469     O      0.905200000000     0.710300000000     0.539950000000    -0.28378    
O470     O      0.592840000000     0.714890000000     0.541790000000    -0.280942   
O471     O      0.706260000000     0.843450000000     0.464880000000    -0.28192    
O472     O      0.789270000000     0.655290000000     0.457890000000    -0.281475   
O473     O      0.711010000000     0.540520000000     0.905840000000    -0.279438   
O474     O      0.712490000000     0.958140000000     0.593780000000    -0.280962   
O475     O      0.952590000000     0.780910000000     0.904910000000    -0.288565   
O476     O      0.043330000000     0.789190000000     0.592550000000    -0.280577   
O477     O      0.593210000000     0.956960000000     0.785180000000    -0.276916   
O478     O      0.843520000000     0.962480000000     0.709210000000    -0.281575   
O479     O      0.035890000000     0.904870000000     0.792450000000    -0.286511   
O480     O      0.539990000000     0.655610000000     0.786040000000    -0.28196    


