data_structure

_audit_creation_method RASPA-1.0
_audit_creation_date 2023-5-23
_audit_author_name 'Poobodin Mano'

_cell_length_a    32.4765
_cell_length_b    32.4978
_cell_length_c    43.4879
_cell_angle_alpha 90
_cell_angle_beta  90
_cell_angle_gamma 90
_cell_volume      45897.8

_symmetry_cell_setting          triclinic
_symmetry_space_group_name_Hall 'P 1'
_symmetry_space_group_name_H-M  'P 1'
_symmetry_Int_Tables_number     1

_symmetry_equiv_pos_as_xyz 'x,y,z'

loop_
_atom_site_label
_atom_site_type_symbol
_atom_site_fract_x
_atom_site_fract_y
_atom_site_fract_z
_atom_site_charge
C1       C      0.340990000000     0.007350000000     0.449190000000     0.401937   
C2       C      0.340980000000     0.007450000000     0.071880000000     0.401321   
C3       C      0.259110000000     0.007790000000     0.510520000000     0.4035     
C4       C      0.423130000000     0.007100000000     0.009730000000     0.401792   
C5       C      0.342400000000     0.007440000000     0.321910000000     0.401925   
C6       C      0.339460000000     0.007310000000     0.199250000000     0.40126    
C7       C      0.259060000000     0.008340000000     0.262170000000     0.403503   
C8       C      0.423070000000     0.006640000000     0.259000000000     0.40177    
C9       C      0.008320000000     0.675300000000     0.067450000000     0.401663   
C10      C      0.008160000000     0.675310000000     0.444780000000     0.401829   
C11      C      0.008240000000     0.757120000000     0.506120000000     0.403499   
C12      C      0.008240000000     0.593160000000     0.506110000000     0.402108   
C13      C      0.008280000000     0.675620000000     0.317450000000     0.401792   
C14      C      0.008200000000     0.675630000000     0.194780000000     0.401806   
C15      C      0.008240000000     0.757490000000     0.256120000000     0.40356    
C16      C      0.008240000000     0.593550000000     0.256110000000     0.402059   
C17      C      0.675490000000     0.007350000000     0.063020000000     0.401521   
C18      C      0.675510000000     0.007450000000     0.440330000000     0.401309   
C19      C      0.593350000000     0.007100000000     0.002480000000     0.401857   
C20      C      0.757370000000     0.007790000000     0.501690000000     0.403701   
C21      C      0.677020000000     0.007310000000     0.312960000000     0.401275   
C22      C      0.674090000000     0.007440000000     0.190300000000     0.402094   
C23      C      0.593420000000     0.006640000000     0.253220000000     0.401853   
C24      C      0.757430000000     0.008330000000     0.250040000000     0.403507   
C25      C      0.008240000000     0.089560000000     0.506100000000     0.402948   
C26      C      0.008240000000     0.926400000000     0.506110000000     0.403086   
C27      C      0.089820000000     0.007990000000     0.507750000000     0.403313   
C28      C      0.926660000000     0.007980000000     0.504460000000     0.403162   
C29      C      0.008240000000     0.090280000000     0.256090000000     0.404857   
C30      C      0.008240000000     0.926730000000     0.256110000000     0.404586   
C31      C      0.089880000000     0.008900000000     0.260070000000     0.404535   
C32      C      0.926610000000     0.008890000000     0.252130000000     0.404258   
C33      C      0.006710000000     0.340710000000     0.067410000000     0.401412   
C34      C      0.009760000000     0.340710000000     0.444750000000     0.401549   
C35      C      0.008230000000     0.422750000000     0.506080000000     0.402088   
C36      C      0.008240000000     0.258800000000     0.506080000000     0.403369   
C37      C      0.006700000000     0.341070000000     0.194760000000     0.401504   
C38      C      0.009760000000     0.341060000000     0.317410000000     0.401702   
C39      C      0.008240000000     0.423160000000     0.256090000000     0.401899   
C40      C      0.008230000000     0.259290000000     0.256080000000     0.403904   
C41      C      0.973970000000     0.342660000000     0.397100000000     0.0314844  
C42      C      0.046480000000     0.338990000000     0.397170000000     0.0299774  
C43      C      0.046490000000     0.339080000000     0.364980000000     0.0299162  
C44      C      0.973970000000     0.342780000000     0.365060000000     0.0313817  
C45      C      0.969990000000     0.338990000000     0.114990000000     0.0316383  
C46      C      0.042500000000     0.342660000000     0.115060000000     0.0298222  
C47      C      0.042500000000     0.342780000000     0.147100000000     0.0296962  
C48      C      0.969980000000     0.339080000000     0.147180000000     0.0315268  
C49      C      0.032020000000     0.153320000000     0.235520000000     0.0321218  
C50      C      0.984450000000     0.153320000000     0.276660000000     0.0339196  
C51      C      0.982800000000     0.196240000000     0.275530000000     0.0333183  
C52      C      0.033660000000     0.196240000000     0.236640000000     0.0316948  
C53      C      0.034330000000     0.152710000000     0.525020000000     0.0311445  
C54      C      0.982150000000     0.152700000000     0.987160000000     0.0351849  
C55      C      0.980740000000     0.195640000000     0.988300000000     0.0358169  
C56      C      0.035740000000     0.195640000000     0.523870000000     0.0314935  
C57      C      0.820120000000     0.036870000000     0.267420000000     0.0315706  
C58      C      0.821080000000     0.981900000000     0.231840000000     0.0332609  
C59      C      0.864140000000     0.983750000000     0.230970000000     0.0333936  
C60      C      0.862980000000     0.035820000000     0.268900000000     0.0320387  
C61      C      0.676540000000     0.971130000000     0.392730000000     0.0315313  
C62      C      0.676190000000     0.043690000000     0.392690000000     0.0298056  
C63      C      0.676590000000     0.043600000000     0.360570000000     0.0298481  
C64      C      0.677240000000     0.971040000000     0.360610000000     0.0314686  
C65      C      0.675120000000     0.971060000000     0.110620000000     0.031542   
C66      C      0.674540000000     0.043630000000     0.110590000000     0.0299529  
C67      C      0.674150000000     0.043710000000     0.142700000000     0.0299966  
C68      C      0.674470000000     0.971140000000     0.142720000000     0.0315952  
C69      C      0.821100000000     0.979990000000     0.485200000000     0.0331705  
C70      C      0.820010000000     0.036050000000     0.019800000000     0.0310427  
C71      C      0.862910000000     0.034710000000     0.021710000000     0.0305566  
C72      C      0.864090000000     0.981390000000     0.484770000000     0.032972   
C73      C      0.971950000000     0.486870000000     0.255270000000     0.0317887  
C74      C      0.044530000000     0.486870000000     0.256920000000     0.0301185  
C75      C      0.044530000000     0.529840000000     0.256940000000     0.0301286  
C76      C      0.971950000000     0.529840000000     0.255270000000     0.0317898  
C77      C      0.034850000000     0.863570000000     0.237580000000     0.0312554  
C78      C      0.981640000000     0.863580000000     0.274640000000     0.0330332  
C79      C      0.980270000000     0.820650000000     0.273480000000     0.0332206  
C80      C      0.036230000000     0.820640000000     0.238750000000     0.0315177  
C81      C      0.971930000000     0.529450000000     0.506000000000     0.0317705  
C82      C      0.044540000000     0.529440000000     0.006200000000     0.0298821  
C83      C      0.044540000000     0.486470000000     0.006130000000     0.0298287  
C84      C      0.971930000000     0.486470000000     0.506060000000     0.0318263  
C85      C      0.971870000000     0.675530000000     0.397160000000     0.0316516  
C86      C      0.044480000000     0.675470000000     0.397190000000     0.0298875  
C87      C      0.044560000000     0.675710000000     0.365070000000     0.0300014  
C88      C      0.971950000000     0.675480000000     0.365040000000     0.0315388  
C89      C      0.972000000000     0.675470000000     0.115050000000     0.0314753  
C90      C      0.044610000000     0.675520000000     0.115080000000     0.0299147  
C91      C      0.044530000000     0.675480000000     0.147190000000     0.0298687  
C92      C      0.971920000000     0.675710000000     0.147160000000     0.0316284  
C93      C      0.979910000000     0.820300000000     0.023150000000     0.0328512  
C94      C      0.036580000000     0.820300000000     0.489080000000     0.0314979  
C95      C      0.035250000000     0.863230000000     0.487910000000     0.0310381  
C96      C      0.981240000000     0.863230000000     0.024320000000     0.0321822  
C97      C      0.486740000000     0.970160000000     0.256860000000     0.031763   
C98      C      0.486790000000     0.042730000000     0.256940000000     0.0301265  
C99      C      0.529700000000     0.042730000000     0.255270000000     0.0301244  
C100     C      0.529740000000     0.970160000000     0.255350000000     0.0317425  
C101     C      0.196360000000     0.036870000000     0.244780000000     0.0314448  
C102     C      0.195400000000     0.981910000000     0.280370000000     0.0331361  
C103     C      0.152350000000     0.983760000000     0.281230000000     0.0333452  
C104     C      0.153500000000     0.035820000000     0.243300000000     0.0320171  
C105     C      0.486780000000     0.970750000000     0.007140000000     0.0314964  
C106     C      0.486800000000     0.043320000000     0.507210000000     0.030154   
C107     C      0.529680000000     0.043320000000     0.504990000000     0.030135   
C108     C      0.529710000000     0.970750000000     0.005070000000     0.0315222  
C109     C      0.342330000000     0.043710000000     0.369510000000     0.0300018  
C110     C      0.342010000000     0.971140000000     0.369490000000     0.0315893  
C111     C      0.341360000000     0.971070000000     0.401590000000     0.0316219  
C112     C      0.341940000000     0.043640000000     0.401620000000     0.0299928  
C113     C      0.339940000000     0.971140000000     0.119480000000     0.0314914  
C114     C      0.340300000000     0.043690000000     0.119520000000     0.0298888  
C115     C      0.339900000000     0.043610000000     0.151640000000     0.0296838  
C116     C      0.339240000000     0.971050000000     0.151600000000     0.0314587  
C117     C      0.196470000000     0.036050000000     0.492400000000     0.0314681  
C118     C      0.195390000000     0.980000000000     0.027010000000     0.0327655  
C119     C      0.152400000000     0.981400000000     0.027440000000     0.0322319  
C120     C      0.153570000000     0.034710000000     0.490500000000     0.0311065  
C121     C      0.340990000000     0.007350000000     0.949190000000     0.401682   
C122     C      0.340980000000     0.007450000000     0.571870000000     0.401571   
C123     C      0.259110000000     0.007790000000     0.010520000000     0.403197   
C124     C      0.423130000000     0.007100000000     0.509730000000     0.402164   
C125     C      0.342400000000     0.007440000000     0.821910000000     0.401971   
C126     C      0.339460000000     0.007310000000     0.699250000000     0.401406   
C127     C      0.259060000000     0.008340000000     0.762170000000     0.403507   
C128     C      0.423070000000     0.006640000000     0.759000000000     0.40179    
C129     C      0.008320000000     0.675300000000     0.567450000000     0.40182    
C130     C      0.008160000000     0.675310000000     0.944780000000     0.4015     
C131     C      0.008240000000     0.757120000000     0.006120000000     0.403099   
C132     C      0.008240000000     0.593160000000     0.006110000000     0.401737   
C133     C      0.008280000000     0.675620000000     0.817450000000     0.401669   
C134     C      0.008200000000     0.675630000000     0.694780000000     0.401803   
C135     C      0.008240000000     0.757490000000     0.756120000000     0.403566   
C136     C      0.008240000000     0.593550000000     0.756110000000     0.402076   
C137     C      0.675490000000     0.007350000000     0.563020000000     0.401768   
C138     C      0.675510000000     0.007450000000     0.940330000000     0.400939   
C139     C      0.593350000000     0.007100000000     0.502480000000     0.402327   
C140     C      0.757370000000     0.007790000000     0.001690000000     0.399501   
C141     C      0.677020000000     0.007310000000     0.812960000000     0.401322   
C142     C      0.674090000000     0.007440000000     0.690300000000     0.402098   
C143     C      0.593420000000     0.006640000000     0.753210000000     0.40187    
C144     C      0.757430000000     0.008330000000     0.750040000000     0.403521   
C145     C      0.008240000000     0.089560000000     0.006100000000     0.399194   
C146     C      0.008240000000     0.926400000000     0.006110000000     0.399325   
C147     C      0.089820000000     0.007990000000     0.007750000000     0.399556   
C148     C      0.926660000000     0.007980000000     0.004460000000     0.399406   
C149     C      0.008240000000     0.090280000000     0.756090000000     0.404858   
C150     C      0.008240000000     0.926730000000     0.756110000000     0.404583   
C151     C      0.089880000000     0.008900000000     0.760070000000     0.404533   
C152     C      0.926610000000     0.008890000000     0.752130000000     0.404261   
C153     C      0.006710000000     0.340710000000     0.567410000000     0.40164    
C154     C      0.009760000000     0.340710000000     0.944750000000     0.401295   
C155     C      0.008230000000     0.422750000000     0.006080000000     0.401718   
C156     C      0.008240000000     0.258800000000     0.006080000000     0.40297    
C157     C      0.006700000000     0.341070000000     0.694750000000     0.401588   
C158     C      0.009760000000     0.341060000000     0.817410000000     0.401757   
C159     C      0.008240000000     0.423160000000     0.756090000000     0.401929   
C160     C      0.008230000000     0.259290000000     0.756080000000     0.403916   
C161     C      0.973970000000     0.342660000000     0.897100000000     0.0316765  
C162     C      0.046480000000     0.338990000000     0.897170000000     0.0301835  
C163     C      0.046490000000     0.339080000000     0.864980000000     0.0300666  
C164     C      0.973970000000     0.342780000000     0.865060000000     0.0315251  
C165     C      0.969990000000     0.338990000000     0.614990000000     0.031669   
C166     C      0.042500000000     0.342660000000     0.615060000000     0.0298565  
C167     C      0.042500000000     0.342780000000     0.647100000000     0.0297358  
C168     C      0.969980000000     0.339080000000     0.647180000000     0.0315816  
C169     C      0.032020000000     0.153320000000     0.735520000000     0.0321415  
C170     C      0.984450000000     0.153320000000     0.776660000000     0.033943   
C171     C      0.982800000000     0.196240000000     0.775530000000     0.0333717  
C172     C      0.033660000000     0.196240000000     0.736640000000     0.0317218  
C173     C      0.034330000000     0.152710000000     0.025020000000     0.0305406  
C174     C      0.982150000000     0.152700000000     0.487160000000     0.0329591  
C175     C      0.980740000000     0.195640000000     0.488300000000     0.0332087  
C176     C      0.035740000000     0.195640000000     0.023870000000     0.0310865  
C177     C      0.820120000000     0.036870000000     0.767420000000     0.031596   
C178     C      0.821080000000     0.981900000000     0.731850000000     0.0333233  
C179     C      0.864140000000     0.983750000000     0.730980000000     0.0334485  
C180     C      0.862980000000     0.035820000000     0.768900000000     0.0320679  
C181     C      0.676540000000     0.971130000000     0.892730000000     0.0316955  
C182     C      0.676190000000     0.043690000000     0.892690000000     0.0299964  
C183     C      0.676590000000     0.043600000000     0.860570000000     0.0299916  
C184     C      0.677240000000     0.971040000000     0.860610000000     0.0316083  
C185     C      0.675120000000     0.971060000000     0.610620000000     0.0316021  
C186     C      0.674540000000     0.043630000000     0.610590000000     0.0299948  
C187     C      0.674150000000     0.043710000000     0.642700000000     0.0300259  
C188     C      0.674470000000     0.971140000000     0.642720000000     0.0316265  
C189     C      0.821100000000     0.979990000000     0.985200000000     0.0354306  
C190     C      0.820010000000     0.036050000000     0.519800000000     0.0316203  
C191     C      0.862910000000     0.034710000000     0.521710000000     0.0311136  
C192     C      0.864090000000     0.981390000000     0.984770000000     0.0352718  
C193     C      0.971950000000     0.486870000000     0.755270000000     0.0318494  
C194     C      0.044530000000     0.486870000000     0.756920000000     0.0301798  
C195     C      0.044530000000     0.529840000000     0.756940000000     0.03019    
C196     C      0.971950000000     0.529840000000     0.755270000000     0.0318486  
C197     C      0.034850000000     0.863570000000     0.737580000000     0.0312717  
C198     C      0.981640000000     0.863580000000     0.774650000000     0.0329922  
C199     C      0.980270000000     0.820650000000     0.773480000000     0.0332914  
C200     C      0.036230000000     0.820640000000     0.738750000000     0.0315515  
C201     C      0.971930000000     0.529450000000     0.006000000000     0.0314909  
C202     C      0.044540000000     0.529440000000     0.506200000000     0.0301568  
C203     C      0.044540000000     0.486470000000     0.506130000000     0.0301039  
C204     C      0.971930000000     0.486470000000     0.006060000000     0.0315473  
C205     C      0.971870000000     0.675530000000     0.897160000000     0.0318557  
C206     C      0.044480000000     0.675470000000     0.897190000000     0.0300837  
C207     C      0.044560000000     0.675710000000     0.865080000000     0.0301093  
C208     C      0.971950000000     0.675480000000     0.865040000000     0.0316774  
C209     C      0.972000000000     0.675470000000     0.615040000000     0.0315482  
C210     C      0.044610000000     0.675520000000     0.615070000000     0.029989   
C211     C      0.044530000000     0.675480000000     0.647190000000     0.0298868  
C212     C      0.971920000000     0.675710000000     0.647160000000     0.0316464  
C213     C      0.979910000000     0.820300000000     0.523150000000     0.0332243  
C214     C      0.036580000000     0.820300000000     0.989080000000     0.0340971  
C215     C      0.035250000000     0.863230000000     0.987910000000     0.033339   
C216     C      0.981240000000     0.863240000000     0.524320000000     0.0329185  
C217     C      0.486740000000     0.970160000000     0.756860000000     0.0318244  
C218     C      0.486790000000     0.042730000000     0.756940000000     0.0301882  
C219     C      0.529700000000     0.042730000000     0.755270000000     0.0301816  
C220     C      0.529740000000     0.970160000000     0.755350000000     0.0318017  
C221     C      0.196360000000     0.036870000000     0.744780000000     0.0314803  
C222     C      0.195400000000     0.981910000000     0.780360000000     0.0332785  
C223     C      0.152350000000     0.983750000000     0.781230000000     0.0332783  
C224     C      0.153500000000     0.035820000000     0.743300000000     0.0320304  
C225     C      0.486780000000     0.970750000000     0.507140000000     0.0317762  
C226     C      0.486800000000     0.043320000000     0.007210000000     0.0298798  
C227     C      0.529680000000     0.043320000000     0.004990000000     0.0298601  
C228     C      0.529700000000     0.970750000000     0.505070000000     0.0317837  
C229     C      0.342330000000     0.043710000000     0.869510000000     0.0301555  
C230     C      0.342010000000     0.971140000000     0.869490000000     0.0317424  
C231     C      0.341360000000     0.971070000000     0.901590000000     0.0318281  
C232     C      0.341940000000     0.043640000000     0.901620000000     0.0301962  
C233     C      0.339940000000     0.971140000000     0.619480000000     0.0315112  
C234     C      0.340300000000     0.043690000000     0.619520000000     0.0299087  
C235     C      0.339900000000     0.043610000000     0.651640000000     0.0297245  
C236     C      0.339240000000     0.971050000000     0.651600000000     0.0314989  
C237     C      0.196470000000     0.036050000000     0.992410000000     0.0341726  
C238     C      0.195390000000     0.980000000000     0.527010000000     0.0331808  
C239     C      0.152400000000     0.981400000000     0.527440000000     0.0328283  
C240     C      0.153570000000     0.034710000000     0.990500000000     0.0332869  
Cu1      Cu     0.340850000000     0.969450000000     0.010820000000     0.846351   
Cu2      Cu     0.341180000000     0.045380000000     0.510200000000     0.847406   
Cu3      Cu     0.341340000000     0.045330000000     0.260280000000     0.849305   
Cu4      Cu     0.340560000000     0.969410000000     0.260930000000     0.846503   
Cu5      Cu     0.046230000000     0.675250000000     0.505800000000     0.846468   
Cu6      Cu     0.970250000000     0.675250000000     0.006430000000     0.847023   
Cu7      Cu     0.046230000000     0.675620000000     0.255820000000     0.846536   
Cu8      Cu     0.970250000000     0.675630000000     0.256410000000     0.849827   
Cu9      Cu     0.675300000000     0.045370000000     0.502010000000     0.847482   
Cu10     Cu     0.675630000000     0.969440000000     0.001390000000     0.843696   
Cu11     Cu     0.675150000000     0.045330000000     0.251930000000     0.849338   
Cu12     Cu     0.675920000000     0.969410000000     0.251280000000     0.846444   
Cu13     Cu     0.007250000000     0.007980000000     0.034220000000     0.83573    
Cu14     Cu     0.009230000000     0.007970000000     0.477990000000     0.839101   
Cu15     Cu     0.005170000000     0.008510000000     0.284380000000     0.844569   
Cu16     Cu     0.011320000000     0.008500000000     0.227830000000     0.844764   
Cu17     Cu     0.046210000000     0.340670000000     0.506760000000     0.846057   
Cu18     Cu     0.970260000000     0.340670000000     0.005400000000     0.846702   
Cu19     Cu     0.970260000000     0.341090000000     0.256780000000     0.849501   
Cu20     Cu     0.046200000000     0.341090000000     0.255390000000     0.846356   
Cu21     Cu     0.340850000000     0.969450000000     0.510820000000     0.848935   
Cu22     Cu     0.341180000000     0.045380000000     0.010200000000     0.84475    
Cu23     Cu     0.341340000000     0.045330000000     0.760280000000     0.849303   
Cu24     Cu     0.340560000000     0.969410000000     0.760930000000     0.846505   
Cu25     Cu     0.046230000000     0.675250000000     0.005800000000     0.843926   
Cu26     Cu     0.970250000000     0.675250000000     0.506430000000     0.849648   
Cu27     Cu     0.046230000000     0.675620000000     0.755820000000     0.846615   
Cu28     Cu     0.970250000000     0.675630000000     0.756410000000     0.849916   
Cu29     Cu     0.675300000000     0.045370000000     0.002010000000     0.84488    
Cu30     Cu     0.675630000000     0.969440000000     0.501390000000     0.848874   
Cu31     Cu     0.675150000000     0.045330000000     0.751930000000     0.849451   
Cu32     Cu     0.675920000000     0.969410000000     0.751280000000     0.846533   
Cu33     Cu     0.007250000000     0.007980000000     0.534220000000     0.839126   
Cu34     Cu     0.009230000000     0.007970000000     0.977990000000     0.841173   
Cu35     Cu     0.005170000000     0.008510000000     0.784380000000     0.844661   
Cu36     Cu     0.011320000000     0.008500000000     0.727830000000     0.844746   
Cu37     Cu     0.046210000000     0.340670000000     0.006760000000     0.8436     
Cu38     Cu     0.970260000000     0.340670000000     0.505400000000     0.849401   
Cu39     Cu     0.970260000000     0.341090000000     0.756780000000     0.849629   
Cu40     Cu     0.046200000000     0.341090000000     0.755390000000     0.846476   
H1       H      0.944410000000     0.344120000000     0.408650000000     0.0385709  
H2       H      0.075910000000     0.337450000000     0.408890000000     0.0386097  
H3       H      0.075910000000     0.337620000000     0.353260000000     0.0386349  
H4       H      0.944420000000     0.344310000000     0.353510000000     0.0386039  
H5       H      0.940560000000     0.337450000000     0.103270000000     0.0384215  
H6       H      0.072060000000     0.344130000000     0.103510000000     0.0385767  
H7       H      0.072050000000     0.344320000000     0.158650000000     0.0386688  
H8       H      0.940560000000     0.337620000000     0.158900000000     0.0385313  
H9       H      0.051470000000     0.137260000000     0.219150000000     0.0346285  
H10      H      0.965000000000     0.137270000000     0.293020000000     0.034866   
H11      H      0.962620000000     0.212280000000     0.291380000000     0.0354896  
H12      H      0.053850000000     0.212280000000     0.220780000000     0.0353591  
H13      H      0.055650000000     0.136730000000     0.540070000000     0.0364707  
H14      H      0.960830000000     0.136720000000     0.972110000000     0.036836   
H15      H      0.958830000000     0.211610000000     0.973730000000     0.0364442  
H16      H      0.057640000000     0.211630000000     0.538440000000     0.0361011  
H17      H      0.803800000000     0.058570000000     0.281940000000     0.0362427  
H18      H      0.805400000000     0.959830000000     0.217250000000     0.0360192  
H19      H      0.880650000000     0.962530000000     0.216190000000     0.0361375  
H20      H      0.878530000000     0.057120000000     0.284210000000     0.035574   
H21      H      0.676560000000     0.941640000000     0.404380000000     0.0386174  
H22      H      0.675820000000     0.073200000000     0.404310000000     0.038483   
H23      H      0.676540000000     0.073100000000     0.348920000000     0.0386274  
H24      H      0.677620000000     0.941530000000     0.348980000000     0.0384443  
H25      H      0.675480000000     0.941560000000     0.098980000000     0.0383287  
H26      H      0.674530000000     0.073130000000     0.098950000000     0.038672   
H27      H      0.673830000000     0.073220000000     0.154330000000     0.0385807  
H28      H      0.674490000000     0.941640000000     0.154370000000     0.0385962  
H29      H      0.805550000000     0.957620000000     0.470780000000     0.0362673  
H30      H      0.803600000000     0.058350000000     0.033740000000     0.0363784  
H31      H      0.878430000000     0.056480000000     0.036650000000     0.0369614  
H32      H      0.880550000000     0.959620000000     0.470390000000     0.0370352  
H33      H      0.942430000000     0.471300000000     0.254590000000     0.0385463  
H34      H      0.074040000000     0.471290000000     0.257600000000     0.0386534  
H35      H      0.074040000000     0.545410000000     0.257610000000     0.0386412  
H36      H      0.942430000000     0.545410000000     0.254600000000     0.0385354  
H37      H      0.056580000000     0.879550000000     0.222870000000     0.0368029  
H38      H      0.959910000000     0.879560000000     0.289360000000     0.0370272  
H39      H      0.957970000000     0.804670000000     0.287710000000     0.0363777  
H40      H      0.058520000000     0.804670000000     0.224520000000     0.0362903  
H41      H      0.942400000000     0.545020000000     0.505940000000     0.0385495  
H42      H      0.074070000000     0.545020000000     0.006270000000     0.0382796  
H43      H      0.074070000000     0.470890000000     0.006180000000     0.0382986  
H44      H      0.942400000000     0.470900000000     0.506010000000     0.0385374  
H45      H      0.942340000000     0.675470000000     0.408790000000     0.0384283  
H46      H      0.074000000000     0.675470000000     0.408840000000     0.0387306  
H47      H      0.074100000000     0.675790000000     0.353450000000     0.0385057  
H48      H      0.942430000000     0.675470000000     0.353390000000     0.0386176  
H49      H      0.942480000000     0.675470000000     0.103400000000     0.0385405  
H50      H      0.074140000000     0.675460000000     0.103440000000     0.0384165  
H51      H      0.074050000000     0.675460000000     0.158840000000     0.0386622  
H52      H      0.942390000000     0.675790000000     0.158790000000     0.038388   
H53      H      0.957320000000     0.804340000000     0.037130000000     0.0362669  
H54      H      0.059170000000     0.804330000000     0.475110000000     0.0363933  
H55      H      0.057300000000     0.879200000000     0.473460000000     0.0370483  
H56      H      0.959190000000     0.879210000000     0.038770000000     0.0371254  
H57      H      0.471120000000     0.940680000000     0.257410000000     0.0384426  
H58      H      0.471270000000     0.072260000000     0.257500000000     0.0387301  
H59      H      0.545220000000     0.072260000000     0.254710000000     0.0387291  
H60      H      0.545360000000     0.940680000000     0.254800000000     0.0384523  
H61      H      0.212690000000     0.058570000000     0.230260000000     0.0361749  
H62      H      0.211080000000     0.959850000000     0.294970000000     0.0359868  
H63      H      0.135840000000     0.962540000000     0.296020000000     0.0358837  
H64      H      0.137960000000     0.057120000000     0.227980000000     0.0353184  
H65      H      0.471210000000     0.941260000000     0.007850000000     0.0381889  
H66      H      0.471260000000     0.072840000000     0.507940000000     0.0386718  
H67      H      0.545220000000     0.072830000000     0.504260000000     0.0386762  
H68      H      0.545280000000     0.941260000000     0.004360000000     0.0381681  
H69      H      0.342650000000     0.073220000000     0.357880000000     0.038619   
H70      H      0.341990000000     0.941640000000     0.357840000000     0.0386488  
H71      H      0.341000000000     0.941560000000     0.413230000000     0.0384407  
H72      H      0.341960000000     0.073140000000     0.413260000000     0.0387523  
H73      H      0.339930000000     0.941640000000     0.107830000000     0.0384976  
H74      H      0.340670000000     0.073210000000     0.107900000000     0.0383189  
H75      H      0.339940000000     0.073100000000     0.163290000000     0.0385966  
H76      H      0.338870000000     0.941540000000     0.163230000000     0.0383747  
H77      H      0.212890000000     0.058350000000     0.478460000000     0.0364214  
H78      H      0.210940000000     0.957630000000     0.041440000000     0.0360296  
H79      H      0.135940000000     0.959630000000     0.041820000000     0.036675   
H80      H      0.138050000000     0.056480000000     0.475550000000     0.0368253  
H81      H      0.944410000000     0.344120000000     0.908650000000     0.0389806  
H82      H      0.075910000000     0.337450000000     0.908890000000     0.0390304  
H83      H      0.075910000000     0.337620000000     0.853260000000     0.0388168  
H84      H      0.944420000000     0.344310000000     0.853520000000     0.0387749  
H85      H      0.940560000000     0.337450000000     0.603270000000     0.0385449  
H86      H      0.072060000000     0.344130000000     0.603510000000     0.03869    
H87      H      0.072050000000     0.344320000000     0.658650000000     0.0387264  
H88      H      0.940560000000     0.337620000000     0.658900000000     0.038588   
H89      H      0.051470000000     0.137260000000     0.719150000000     0.0346561  
H90      H      0.965000000000     0.137270000000     0.793020000000     0.0349366  
H91      H      0.962620000000     0.212280000000     0.791390000000     0.0355651  
H92      H      0.053850000000     0.212280000000     0.720780000000     0.0353977  
H93      H      0.055650000000     0.136730000000     0.040070000000     0.036347   
H94      H      0.960830000000     0.136720000000     0.472120000000     0.0366606  
H95      H      0.958830000000     0.211620000000     0.473730000000     0.0361469  
H96      H      0.057640000000     0.211630000000     0.038440000000     0.0359499  
H97      H      0.803800000000     0.058570000000     0.781940000000     0.0363136  
H98      H      0.805400000000     0.959830000000     0.717250000000     0.0360622  
H99      H      0.880650000000     0.962530000000     0.716190000000     0.0361586  
H100     H      0.878530000000     0.057120000000     0.784210000000     0.0356356  
H101     H      0.676560000000     0.941640000000     0.904390000000     0.0389925  
H102     H      0.675820000000     0.073200000000     0.904310000000     0.0388996  
H103     H      0.676540000000     0.073100000000     0.848920000000     0.0388019  
H104     H      0.677620000000     0.941530000000     0.848980000000     0.0386085  
H105     H      0.675480000000     0.941560000000     0.598990000000     0.0384693  
H106     H      0.674520000000     0.073130000000     0.598950000000     0.0387848  
H107     H      0.673830000000     0.073220000000     0.654330000000     0.0386539  
H108     H      0.674490000000     0.941640000000     0.654370000000     0.0386771  
H109     H      0.805550000000     0.957620000000     0.970780000000     0.0363836  
H110     H      0.803600000000     0.058350000000     0.533740000000     0.0364725  
H111     H      0.878430000000     0.056480000000     0.536650000000     0.0371055  
H112     H      0.880550000000     0.959620000000     0.970390000000     0.0371682  
H113     H      0.942430000000     0.471290000000     0.754590000000     0.038648   
H114     H      0.074040000000     0.471290000000     0.757600000000     0.0387532  
H115     H      0.074040000000     0.545410000000     0.757620000000     0.0387417  
H116     H      0.942430000000     0.545410000000     0.754600000000     0.0386323  
H117     H      0.056580000000     0.879550000000     0.722870000000     0.036833   
H118     H      0.959910000000     0.879560000000     0.789360000000     0.0371139  
H119     H      0.957970000000     0.804670000000     0.787710000000     0.0364512  
H120     H      0.058520000000     0.804660000000     0.724520000000     0.0363356  
H121     H      0.942400000000     0.545020000000     0.005940000000     0.0381944  
H122     H      0.074070000000     0.545020000000     0.506270000000     0.038638   
H123     H      0.074070000000     0.470890000000     0.506180000000     0.0386534  
H124     H      0.942400000000     0.470900000000     0.006010000000     0.0381792  
H125     H      0.942340000000     0.675470000000     0.908790000000     0.0388504  
H126     H      0.074000000000     0.675470000000     0.908830000000     0.0391184  
H127     H      0.074100000000     0.675790000000     0.853450000000     0.0387059  
H128     H      0.942430000000     0.675470000000     0.853390000000     0.0388033  
H129     H      0.942480000000     0.675470000000     0.603400000000     0.0386334  
H130     H      0.074140000000     0.675460000000     0.603440000000     0.0385212  
H131     H      0.074050000000     0.675460000000     0.658840000000     0.0387353  
H132     H      0.942390000000     0.675790000000     0.658790000000     0.0384597  
H133     H      0.957320000000     0.804340000000     0.537130000000     0.0364406  
H134     H      0.059180000000     0.804330000000     0.975110000000     0.0367055  
H135     H      0.057300000000     0.879200000000     0.973460000000     0.0372046  
H136     H      0.959190000000     0.879210000000     0.538770000000     0.0372242  
H137     H      0.471120000000     0.940680000000     0.757410000000     0.0385432  
H138     H      0.471270000000     0.072260000000     0.757500000000     0.0388293  
H139     H      0.545210000000     0.072260000000     0.754710000000     0.0388201  
H140     H      0.545360000000     0.940680000000     0.754800000000     0.0385506  
H141     H      0.212690000000     0.058570000000     0.730260000000     0.0362141  
H142     H      0.211080000000     0.959850000000     0.794970000000     0.0360471  
H143     H      0.135840000000     0.962540000000     0.796020000000     0.0359834  
H144     H      0.137960000000     0.057120000000     0.727980000000     0.0353492  
H145     H      0.471210000000     0.941260000000     0.507850000000     0.038539   
H146     H      0.471260000000     0.072840000000     0.007940000000     0.0383174  
H147     H      0.545220000000     0.072830000000     0.004270000000     0.0383196  
H148     H      0.545280000000     0.941260000000     0.504360000000     0.0385401  
H149     H      0.342650000000     0.073220000000     0.857880000000     0.0388046  
H150     H      0.341990000000     0.941640000000     0.857840000000     0.0388373  
H151     H      0.341000000000     0.941560000000     0.913220000000     0.0388654  
H152     H      0.341960000000     0.073140000000     0.913260000000     0.0391662  
H153     H      0.339930000000     0.941640000000     0.607820000000     0.0386194  
H154     H      0.340670000000     0.073210000000     0.607900000000     0.0384447  
H155     H      0.339940000000     0.073100000000     0.663290000000     0.0386718  
H156     H      0.338870000000     0.941540000000     0.663230000000     0.0384469  
H157     H      0.212890000000     0.058350000000     0.978460000000     0.0367149  
H158     H      0.210940000000     0.957630000000     0.541440000000     0.0361752  
H159     H      0.135940000000     0.959640000000     0.541820000000     0.0368009  
H160     H      0.138050000000     0.056480000000     0.975550000000     0.0370219  
N1       N      0.010180000000     0.340770000000     0.413190000000    -0.176003   
N2       N      0.010190000000     0.340980000000     0.348970000000    -0.176015   
N3       N      0.006290000000     0.340770000000     0.098970000000    -0.175989   
N4       N      0.006280000000     0.340990000000     0.163190000000    -0.175894   
N5       N      0.008240000000     0.132180000000     0.256090000000    -0.177529   
N6       N      0.008230000000     0.217390000000     0.256080000000    -0.17725    
N7       N      0.008240000000     0.131510000000     0.506090000000    -0.177049   
N8       N      0.008240000000     0.216840000000     0.506080000000    -0.177152   
N9       N      0.799400000000     0.009010000000     0.249680000000    -0.177061   
N10      N      0.884730000000     0.009720000000     0.250330000000    -0.177229   
N11      N      0.676020000000     0.007450000000     0.408770000000    -0.175913   
N12      N      0.677080000000     0.007280000000     0.344530000000    -0.175867   
N13      N      0.675120000000     0.007310000000     0.094570000000    -0.17604    
N14      N      0.674120000000     0.007460000000     0.158750000000    -0.176127   
N15      N      0.799350000000     0.007980000000     0.502170000000    -0.177224   
N16      N      0.884700000000     0.008030000000     0.503630000000    -0.176988   
N17      N      0.008240000000     0.465390000000     0.256090000000    -0.175924   
N18      N      0.008240000000     0.551320000000     0.256110000000    -0.175956   
N19      N      0.008250000000     0.884780000000     0.256110000000    -0.177289   
N20      N      0.008250000000     0.799440000000     0.256120000000    -0.177221   
N21      N      0.008240000000     0.550930000000     0.506100000000    -0.175971   
N22      N      0.008230000000     0.464990000000     0.506090000000    -0.175913   
N23      N      0.008130000000     0.675430000000     0.413220000000    -0.176028   
N24      N      0.008300000000     0.675610000000     0.349010000000    -0.176036   
N25      N      0.008350000000     0.675430000000     0.099010000000    -0.175991   
N26      N      0.008180000000     0.675620000000     0.163220000000    -0.176039   
N27      N      0.008240000000     0.799090000000     0.506120000000    -0.177159   
N28      N      0.008240000000     0.884440000000     0.506120000000    -0.176933   
N29      N      0.465300000000     0.006460000000     0.257680000000    -0.175857   
N30      N      0.551190000000     0.006460000000     0.254530000000    -0.175863   
N31      N      0.217090000000     0.009010000000     0.262520000000    -0.177049   
N32      N      0.131750000000     0.009730000000     0.261870000000    -0.177448   
N33      N      0.465340000000     0.007040000000     0.008210000000    -0.176017   
N34      N      0.551140000000     0.007040000000     0.004000000000    -0.176039   
N35      N      0.342360000000     0.007460000000     0.353460000000    -0.176088   
N36      N      0.341370000000     0.007320000000     0.417640000000    -0.176109   
N37      N      0.340460000000     0.007460000000     0.103440000000    -0.175969   
N38      N      0.339410000000     0.007280000000     0.167680000000    -0.175862   
N39      N      0.217130000000     0.007980000000     0.510040000000    -0.177206   
N40      N      0.131780000000     0.008040000000     0.508580000000    -0.177119   
N41      N      0.010180000000     0.340770000000     0.913190000000    -0.17577    
N42      N      0.010190000000     0.340980000000     0.848970000000    -0.175981   
N43      N      0.006290000000     0.340770000000     0.598970000000    -0.176008   
N44      N      0.006280000000     0.340980000000     0.663190000000    -0.175988   
N45      N      0.008240000000     0.132180000000     0.756090000000    -0.177519   
N46      N      0.008230000000     0.217390000000     0.756080000000    -0.177241   
N47      N      0.008240000000     0.131510000000     0.006090000000    -0.178067   
N48      N      0.008240000000     0.216840000000     0.006080000000    -0.178698   
N49      N      0.799400000000     0.009010000000     0.749680000000    -0.177066   
N50      N      0.884730000000     0.009720000000     0.750330000000    -0.177238   
N51      N      0.676020000000     0.007450000000     0.908770000000    -0.175673   
N52      N      0.677080000000     0.007280000000     0.844530000000    -0.17584    
N53      N      0.675120000000     0.007310000000     0.594570000000    -0.176063   
N54      N      0.674120000000     0.007460000000     0.658750000000    -0.176117   
N55      N      0.799350000000     0.007980000000     0.002170000000    -0.178185   
N56      N      0.884700000000     0.008030000000     0.003630000000    -0.17804    
N57      N      0.008240000000     0.465390000000     0.756090000000    -0.175905   
N58      N      0.008240000000     0.551320000000     0.756110000000    -0.175932   
N59      N      0.008250000000     0.884780000000     0.756110000000    -0.177258   
N60      N      0.008250000000     0.799440000000     0.756120000000    -0.177215   
N61      N      0.008240000000     0.550930000000     0.006110000000    -0.176044   
N62      N      0.008230000000     0.464990000000     0.006090000000    -0.175985   
N63      N      0.008130000000     0.675430000000     0.913220000000    -0.175787   
N64      N      0.008300000000     0.675610000000     0.849010000000    -0.175956   
N65      N      0.008350000000     0.675430000000     0.599010000000    -0.176029   
N66      N      0.008180000000     0.675620000000     0.663220000000    -0.176029   
N67      N      0.008240000000     0.799090000000     0.006120000000    -0.178712   
N68      N      0.008250000000     0.884440000000     0.006110000000    -0.17794    
N69      N      0.465300000000     0.006460000000     0.757680000000    -0.175834   
N70      N      0.551190000000     0.006460000000     0.754530000000    -0.175836   
N71      N      0.217090000000     0.009010000000     0.762520000000    -0.177062   
N72      N      0.131750000000     0.009730000000     0.761870000000    -0.177412   
N73      N      0.465340000000     0.007040000000     0.508210000000    -0.175947   
N74      N      0.551140000000     0.007040000000     0.504000000000    -0.175979   
N75      N      0.342360000000     0.007460000000     0.853460000000    -0.176053   
N76      N      0.341370000000     0.007320000000     0.917640000000    -0.175871   
N77      N      0.340460000000     0.007460000000     0.603440000000    -0.175919   
N78      N      0.339410000000     0.007280000000     0.667680000000    -0.175872   
N79      N      0.217140000000     0.007980000000     0.010040000000    -0.17883    
N80      N      0.131780000000     0.008040000000     0.008580000000    -0.17813    
O1       O      0.339410000000     0.973150000000     0.464050000000    -0.392695   
O2       O      0.342310000000     0.973150000000     0.057280000000    -0.394057   
O3       O      0.278450000000     0.973460000000     0.012710000000    -0.393304   
O4       O      0.403300000000     0.972890000000     0.509450000000    -0.393374   
O5       O      0.403550000000     0.041430000000     0.510890000000    -0.3951     
O6       O      0.278800000000     0.041930000000     0.008480000000    -0.395535   
O7       O      0.339930000000     0.041670000000     0.057010000000    -0.393454   
O8       O      0.342390000000     0.041650000000     0.463780000000    -0.396037   
O9       O      0.341190000000     0.041660000000     0.307060000000    -0.394253   
O10      O      0.341390000000     0.041600000000     0.213830000000    -0.395967   
O11      O      0.278970000000     0.042270000000     0.259560000000    -0.395472   
O12      O      0.403640000000     0.041040000000     0.260230000000    -0.395637   
O13      O      0.403070000000     0.972500000000     0.258760000000    -0.392261   
O14      O      0.278160000000     0.973820000000     0.263890000000    -0.391788   
O15      O      0.337970000000     0.973120000000     0.214140000000    -0.391988   
O16      O      0.343250000000     0.973120000000     0.307320000000    -0.394513   
O17      O      0.042550000000     0.676580000000     0.052590000000    -0.393571   
O18      O      0.042490000000     0.673940000000     0.459360000000    -0.395857   
O19      O      0.042500000000     0.737610000000     0.504030000000    -0.394377   
O20      O      0.042530000000     0.612870000000     0.506820000000    -0.39472    
O21      O      0.973950000000     0.612870000000     0.505410000000    -0.393578   
O22      O      0.973990000000     0.737610000000     0.508210000000    -0.393285   
O23      O      0.973930000000     0.676590000000     0.459640000000    -0.392698   
O24      O      0.973990000000     0.673940000000     0.052870000000    -0.39439    
O25      O      0.042510000000     0.677030000000     0.302600000000    -0.393939   
O26      O      0.042520000000     0.674210000000     0.209380000000    -0.395811   
O27      O      0.042490000000     0.737980000000     0.253960000000    -0.394334   
O28      O      0.042530000000     0.613250000000     0.256930000000    -0.394768   
O29      O      0.973950000000     0.613260000000     0.255290000000    -0.393604   
O30      O      0.973990000000     0.737980000000     0.258270000000    -0.393266   
O31      O      0.973970000000     0.677030000000     0.209630000000    -0.392784   
O32      O      0.973960000000     0.674210000000     0.302850000000    -0.394692   
O33      O      0.674090000000     0.041650000000     0.048430000000    -0.395663   
O34      O      0.676550000000     0.041670000000     0.455200000000    -0.393707   
O35      O      0.612930000000     0.041420000000     0.501310000000    -0.395206   
O36      O      0.737680000000     0.041920000000     0.003730000000    -0.394369   
O37      O      0.738030000000     0.973460000000     0.999500000000    -0.38813    
O38      O      0.613180000000     0.972890000000     0.502760000000    -0.393419   
O39      O      0.674170000000     0.973140000000     0.454930000000    -0.394256   
O40      O      0.677070000000     0.973140000000     0.048160000000    -0.392175   
O41      O      0.675100000000     0.041600000000     0.298380000000    -0.39595    
O42      O      0.675300000000     0.041650000000     0.205150000000    -0.394381   
O43      O      0.612850000000     0.041040000000     0.251990000000    -0.395678   
O44      O      0.737520000000     0.042270000000     0.252650000000    -0.395366   
O45      O      0.738330000000     0.973820000000     0.248320000000    -0.391767   
O46      O      0.613410000000     0.972500000000     0.253450000000    -0.392315   
O47      O      0.673230000000     0.973120000000     0.204890000000    -0.394561   
O48      O      0.678520000000     0.973120000000     0.298070000000    -0.391951   
O49      O      0.014670000000     0.069990000000     0.031300000000    -0.391457   
O50      O      0.000070000000     0.945980000000     0.031020000000    -0.390868   
O51      O      0.069370000000     0.000680000000     0.032420000000    -0.392106   
O52      O      0.945350000000     0.015280000000     0.029900000000    -0.390519   
O53      O      0.947110000000     0.000670000000     0.479790000000    -0.391742   
O54      O      0.071130000000     0.015280000000     0.482310000000    -0.392437   
O55      O      0.016420000000     0.945970000000     0.481200000000    -0.39131    
O56      O      0.001810000000     0.069980000000     0.480900000000    -0.392527   
O57      O      0.007650000000     0.070830000000     0.281790000000    -0.394302   
O58      O      0.001090000000     0.946250000000     0.281210000000    -0.393461   
O59      O      0.068100000000     0.004220000000     0.284530000000    -0.391798   
O60      O      0.943750000000     0.013040000000     0.278480000000    -0.395362   
O61      O      0.948390000000     0.004200000000     0.227670000000    -0.390571   
O62      O      0.072740000000     0.013030000000     0.233720000000    -0.39654    
O63      O      0.015400000000     0.946240000000     0.231010000000    -0.393192   
O64      O      0.008830000000     0.070820000000     0.230400000000    -0.394212   
O65      O      0.041270000000     0.342340000000     0.053110000000    -0.395918   
O66      O      0.043720000000     0.339030000000     0.459910000000    -0.393132   
O67      O      0.042530000000     0.403050000000     0.505500000000    -0.394599   
O68      O      0.042430000000     0.278310000000     0.508710000000    -0.394219   
O69      O      0.974050000000     0.278310000000     0.503450000000    -0.393079   
O70      O      0.973940000000     0.403050000000     0.506660000000    -0.393531   
O71      O      0.975200000000     0.342340000000     0.459050000000    -0.395133   
O72      O      0.972750000000     0.339030000000     0.052250000000    -0.391662   
O73      O      0.972750000000     0.339260000000     0.209920000000    -0.391907   
O74      O      0.975220000000     0.342910000000     0.303120000000    -0.395297   
O75      O      0.973940000000     0.403450000000     0.255350000000    -0.393437   
O76      O      0.974060000000     0.278760000000     0.258910000000    -0.393155   
O77      O      0.042410000000     0.278750000000     0.253250000000    -0.394212   
O78      O      0.042530000000     0.403450000000     0.256820000000    -0.394647   
O79      O      0.043710000000     0.339250000000     0.302240000000    -0.393159   
O80      O      0.041250000000     0.342920000000     0.209050000000    -0.396315   
O81      O      0.339410000000     0.973150000000     0.964050000000    -0.390398   
O82      O      0.342310000000     0.973150000000     0.557280000000    -0.394472   
O83      O      0.278450000000     0.973460000000     0.512710000000    -0.392973   
O84      O      0.403300000000     0.972890000000     0.009450000000    -0.393601   
O85      O      0.403550000000     0.041430000000     0.010890000000    -0.395284   
O86      O      0.278800000000     0.041930000000     0.508480000000    -0.394809   
O87      O      0.339930000000     0.041670000000     0.557010000000    -0.393849   
O88      O      0.342390000000     0.041650000000     0.963780000000    -0.393749   
O89      O      0.341190000000     0.041660000000     0.807060000000    -0.394154   
O90      O      0.341390000000     0.041600000000     0.713820000000    -0.39595    
O91      O      0.278970000000     0.042270000000     0.759560000000    -0.395426   
O92      O      0.403640000000     0.041040000000     0.760230000000    -0.395569   
O93      O      0.403070000000     0.972500000000     0.758760000000    -0.392196   
O94      O      0.278160000000     0.973820000000     0.763890000000    -0.391747   
O95      O      0.337970000000     0.973120000000     0.714130000000    -0.391973   
O96      O      0.343250000000     0.973120000000     0.807320000000    -0.394415   
O97      O      0.042550000000     0.676580000000     0.552590000000    -0.393866   
O98      O      0.042490000000     0.673940000000     0.959370000000    -0.393602   
O99      O      0.042500000000     0.737610000000     0.004030000000    -0.395098   
O100     O      0.042530000000     0.612870000000     0.006820000000    -0.394924   
O101     O      0.973950000000     0.612870000000     0.005410000000    -0.39381    
O102     O      0.973990000000     0.737610000000     0.008210000000    -0.3936     
O103     O      0.973930000000     0.676590000000     0.959640000000    -0.390385   
O104     O      0.973990000000     0.673940000000     0.552870000000    -0.394722   
O105     O      0.042520000000     0.677030000000     0.802600000000    -0.393738   
O106     O      0.042520000000     0.674210000000     0.709380000000    -0.395793   
O107     O      0.042490000000     0.737980000000     0.753960000000    -0.394297   
O108     O      0.042530000000     0.613250000000     0.756940000000    -0.394703   
O109     O      0.973950000000     0.613260000000     0.755290000000    -0.393548   
O110     O      0.973990000000     0.737980000000     0.758270000000    -0.393231   
O111     O      0.973970000000     0.677030000000     0.709630000000    -0.39276    
O112     O      0.973960000000     0.674210000000     0.802850000000    -0.394572   
O113     O      0.674090000000     0.041650000000     0.548430000000    -0.395996   
O114     O      0.676550000000     0.041670000000     0.955200000000    -0.391434   
O115     O      0.612930000000     0.041420000000     0.001310000000    -0.39537    
O116     O      0.737680000000     0.041920000000     0.503730000000    -0.3949     
O117     O      0.738030000000     0.973460000000     0.499500000000    -0.392992   
O118     O      0.613180000000     0.972890000000     0.002760000000    -0.393267   
O119     O      0.674170000000     0.973140000000     0.954930000000    -0.391918   
O120     O      0.677070000000     0.973140000000     0.548160000000    -0.392567   
O121     O      0.675100000000     0.041600000000     0.798380000000    -0.395896   
O122     O      0.675300000000     0.041650000000     0.705150000000    -0.394338   
O123     O      0.612850000000     0.041040000000     0.751980000000    -0.395624   
O124     O      0.737520000000     0.042270000000     0.752640000000    -0.395345   
O125     O      0.738330000000     0.973820000000     0.748310000000    -0.391724   
O126     O      0.613410000000     0.972500000000     0.753450000000    -0.392256   
O127     O      0.673230000000     0.973120000000     0.704890000000    -0.394522   
O128     O      0.678520000000     0.973120000000     0.798070000000    -0.391894   
O129     O      0.014670000000     0.069990000000     0.531300000000    -0.392234   
O130     O      0.000070000000     0.945980000000     0.531020000000    -0.391638   
O131     O      0.069370000000     0.000680000000     0.532420000000    -0.392889   
O132     O      0.945350000000     0.015280000000     0.529900000000    -0.391285   
O133     O      0.947110000000     0.000670000000     0.979790000000    -0.389005   
O134     O      0.071130000000     0.015280000000     0.982310000000    -0.389682   
O135     O      0.016420000000     0.945970000000     0.981200000000    -0.388561   
O136     O      0.001810000000     0.069980000000     0.980900000000    -0.389777   
O137     O      0.007650000000     0.070830000000     0.781790000000    -0.394262   
O138     O      0.001090000000     0.946250000000     0.781210000000    -0.393422   
O139     O      0.068100000000     0.004220000000     0.784530000000    -0.391754   
O140     O      0.943750000000     0.013040000000     0.778480000000    -0.395331   
O141     O      0.948390000000     0.004200000000     0.727670000000    -0.390562   
O142     O      0.072740000000     0.013030000000     0.733720000000    -0.396529   
O143     O      0.015400000000     0.946240000000     0.731010000000    -0.39318    
O144     O      0.008830000000     0.070820000000     0.730400000000    -0.394202   
O145     O      0.041270000000     0.342340000000     0.553120000000    -0.396226   
O146     O      0.043720000000     0.339030000000     0.959910000000    -0.390864   
O147     O      0.042530000000     0.403050000000     0.005500000000    -0.394845   
O148     O      0.042430000000     0.278310000000     0.008710000000    -0.394538   
O149     O      0.974050000000     0.278310000000     0.003450000000    -0.393788   
O150     O      0.973940000000     0.403050000000     0.006660000000    -0.393724   
O151     O      0.975200000000     0.342340000000     0.959050000000    -0.392859   
O152     O      0.972750000000     0.339030000000     0.552250000000    -0.391999   
O153     O      0.972760000000     0.339260000000     0.709920000000    -0.391914   
O154     O      0.975220000000     0.342910000000     0.803120000000    -0.395226   
O155     O      0.973940000000     0.403450000000     0.755350000000    -0.393389   
O156     O      0.974060000000     0.278760000000     0.758910000000    -0.393122   
O157     O      0.042410000000     0.278750000000     0.753250000000    -0.394175   
O158     O      0.042530000000     0.403450000000     0.756820000000    -0.394592   
O159     O      0.043710000000     0.339250000000     0.802240000000    -0.393086   
O160     O      0.041250000000     0.342920000000     0.709050000000    -0.396254   


