data_structure

_audit_creation_method RASPA-1.0
_audit_creation_date 2023-6-5
_audit_author_name 'Poobodin Mano'

_cell_length_a    35.6748
_cell_length_b    35.6399
_cell_length_c    21.1931
_cell_angle_alpha 89.9791
_cell_angle_beta  90.0211
_cell_angle_gamma 119.981
_cell_volume      23340.3

_symmetry_cell_setting          triclinic
_symmetry_space_group_name_Hall 'P 1'
_symmetry_space_group_name_H-M  'P 1'
_symmetry_Int_Tables_number     1

_symmetry_equiv_pos_as_xyz 'x,y,z'

loop_
_atom_site_label
_atom_site_type_symbol
_atom_site_fract_x
_atom_site_fract_y
_atom_site_fract_z
_atom_site_charge
C1       C      0.744970000000     0.630020000000     0.599870000000     0.400234   
C2       C      0.910130000000     0.707150000000     0.673430000000     0.400491   
C3       C      0.851080000000     0.671940000000     0.515970000000     0.406114   
C4       C      0.805320000000     0.666350000000     0.756700000000     0.406693   
C5       C      0.077050000000     0.789650000000     0.771210000000     0.405784   
C6       C      0.242440000000     0.881800000000     0.844200000000     0.405333   
C7       C      0.181830000000     0.853910000000     0.686940000000     0.402832   
C8       C      0.137370000000     0.816930000000     0.928710000000     0.402028   
C9       C      0.576260000000     0.035790000000     0.007950000000     0.402035   
C10      C      0.411190000000     0.963270000000     0.935460000000     0.401223   
C11      C      0.471820000000     0.996410000000     0.092430000000     0.402477   
C12      C      0.515370000000     0.002050000000     0.850670000000     0.403069   
C13      C      0.243620000000     0.366160000000     0.339470000000     0.405877   
C14      C      0.076670000000     0.284320000000     0.273030000000     0.405789   
C15      C      0.139530000000     0.325740000000     0.427560000000     0.402877   
C16      C      0.179030000000     0.324550000000     0.185370000000     0.406596   
C17      C      0.744560000000     0.115350000000     0.100650000000     0.404987   
C18      C      0.909620000000     0.202320000000     0.175290000000     0.401585   
C19      C      0.850590000000     0.178420000000     0.016840000000     0.402859   
C20      C      0.804710000000     0.140670000000     0.257940000000     0.406221   
C21      C      0.412040000000     0.455700000000     0.431010000000     0.401804   
C22      C      0.576560000000     0.544020000000     0.507540000000     0.405888   
C23      C      0.515980000000     0.520290000000     0.347250000000     0.401942   
C24      C      0.472060000000     0.480530000000     0.588850000000     0.401395   
C25      C      0.112460000000     0.366030000000     0.843750000000     0.401648   
C26      C      0.198210000000     0.287200000000     0.767940000000     0.402387   
C27      C      0.174370000000     0.322290000000     0.926420000000     0.402788   
C28      C      0.136530000000     0.331160000000     0.685580000000     0.40662    
C29      C      0.282490000000     0.203680000000     0.672810000000     0.406377   
C30      C      0.368850000000     0.124380000000     0.600610000000     0.407276   
C31      C      0.326470000000     0.143550000000     0.758240000000     0.406361   
C32      C      0.324730000000     0.184530000000     0.516640000000     0.40232    
C33      C      0.030560000000     0.451530000000     0.939690000000     0.40628    
C34      C      0.960370000000     0.546280000000     0.013400000000     0.405714   
C35      C      0.991500000000     0.517650000000     0.856030000000     0.402363   
C36      C      0.999590000000     0.479980000000     0.097130000000     0.406394   
C37      C      0.620220000000     0.874540000000     0.339650000000     0.402184   
C38      C      0.704250000000     0.794390000000     0.261140000000     0.407321   
C39      C      0.668220000000     0.816610000000     0.421360000000     0.403408   
C40      C      0.656200000000     0.851970000000     0.180430000000     0.402272   
C41      C      0.788580000000     0.709990000000     0.170220000000     0.402799   
C42      C      0.876340000000     0.631540000000     0.102360000000     0.402451   
C43      C      0.850830000000     0.668480000000     0.257630000000     0.402653   
C44      C      0.813060000000     0.672160000000     0.015090000000     0.403096   
C45      C      0.451460000000     0.038850000000     0.507750000000     0.402881   
C46      C      0.533530000000     0.955120000000     0.436570000000     0.405191   
C47      C      0.513590000000     0.995970000000     0.592490000000     0.407429   
C48      C      0.471990000000     0.997530000000     0.351370000000     0.407229   
C49      C      0.291840000000     0.084080000000     0.174990000000     0.406089   
C50      C      0.365270000000     0.248960000000     0.100330000000     0.401168   
C51      C      0.331480000000     0.189580000000     0.258240000000     0.405723   
C52      C      0.325330000000     0.143970000000     0.017240000000     0.402305   
C53      C      0.445910000000     0.416470000000     0.004620000000     0.405611   
C54      C      0.534150000000     0.581510000000     0.929920000000     0.401106   
C55      C      0.510760000000     0.522170000000     0.088340000000     0.40572    
C56      C      0.470760000000     0.476010000000     0.847370000000     0.405312   
C57      C      0.205550000000     0.916490000000     0.270580000000     0.402265   
C58      C      0.113540000000     0.751490000000     0.343680000000     0.399866   
C59      C      0.137460000000     0.811970000000     0.186840000000     0.406619   
C60      C      0.180850000000     0.854450000000     0.427730000000     0.407254   
C61      C      0.959750000000     0.418570000000     0.510910000000     0.404693   
C62      C      0.029160000000     0.584280000000     0.440780000000     0.405824   
C63      C      0.992920000000     0.520870000000     0.597040000000     0.406834   
C64      C      0.994700000000     0.480770000000     0.355390000000     0.402888   
C65      C      0.879070000000     0.249890000000     0.602470000000     0.401741   
C66      C      0.794060000000     0.083380000000     0.671150000000     0.405581   
C67      C      0.815570000000     0.145690000000     0.515970000000     0.403169   
C68      C      0.856310000000     0.185910000000     0.758070000000     0.406745   
C69      C      0.618680000000     0.749200000000     0.834060000000     0.405662   
C70      C      0.704830000000     0.915880000000     0.766980000000     0.400988   
C71      C      0.659420000000     0.852020000000     0.921670000000     0.407264   
C72      C      0.664510000000     0.813780000000     0.680040000000     0.407798   
C73      C      0.706690000000     0.980260000000     0.731500000000     0.0266105  
C74      C      0.770340000000     0.975940000000     0.730840000000    -0.0062044  
C75      C      0.729570000000     0.022110000000     0.706840000000     0.0291486  
C76      C      0.793520000000     0.017410000000     0.703710000000     0.107237   
C77      C      0.840570000000     0.033400000000     0.687580000000    -0.196646   
C78      C      0.878010000000     0.313680000000     0.573220000000     0.0251768  
C79      C      0.942950000000     0.312100000000     0.564750000000    -0.00514142 
C80      C      0.898420000000     0.355460000000     0.548670000000     0.0286341  
C81      C      0.964150000000     0.354520000000     0.539910000000     0.111979   
C82      C      0.011050000000     0.373270000000     0.520590000000    -0.201882   
C83      C      0.112510000000     0.687470000000     0.376650000000     0.023094   
C84      C      0.048420000000     0.690870000000     0.382510000000    -0.00611349 
C85      C      0.091260000000     0.646230000000     0.402630000000     0.0288027  
C86      C      0.026260000000     0.648750000000     0.408660000000     0.112708   
C87      C      0.979370000000     0.630970000000     0.427030000000    -0.203691   
C88      C      0.598540000000     0.644480000000     0.895170000000     0.0265691  
C89      C      0.531780000000     0.642640000000     0.890880000000    -0.0053872  
C90      C      0.619090000000     0.686490000000     0.870630000000     0.0292303  
C91      C      0.551660000000     0.684250000000     0.864050000000     0.107653   
C92      C      0.522060000000     0.701790000000     0.846510000000    -0.196676   
C93      C      0.207780000000     0.981660000000     0.240490000000     0.0254251  
C94      C      0.270690000000     0.976410000000     0.230880000000    -0.00483948 
C95      C      0.229550000000     0.023100000000     0.215060000000     0.0294282  
C96      C      0.293320000000     0.018580000000     0.205160000000     0.112461   
C97      C      0.339730000000     0.035240000000     0.184960000000    -0.202997   
C98      C      0.428030000000     0.313680000000     0.068300000000     0.0246502  
C99      C      0.359990000000     0.308950000000     0.061230000000    -0.00568933 
C100     C      0.447560000000     0.355130000000     0.042790000000     0.0284327  
C101     C      0.379320000000     0.350980000000     0.035210000000     0.111723   
C102     C      0.349340000000     0.367610000000     0.015860000000    -0.201868   
C103     C      0.631380000000     0.784770000000     0.516890000000     0.0258282  
C104     C      0.706770000000     0.832480000000     0.518180000000    -0.00419293 
C105     C      0.630650000000     0.785460000000     0.582560000000     0.0322327  
C106     C      0.706880000000     0.831400000000     0.584550000000     0.111989   
C107     C      0.749700000000     0.858810000000     0.617890000000    -0.201915   
C108     C      0.693180000000     0.882490000000     0.084470000000     0.0234429  
C109     C      0.617580000000     0.836060000000     0.083750000000    -0.00552301 
C110     C      0.693750000000     0.880960000000     0.018800000000     0.0312301  
C111     C      0.617360000000     0.836320000000     0.017370000000     0.111497   
C112     C      0.574310000000     0.809170000000     0.984570000000    -0.202006   
C113     C      0.724960000000     0.708460000000     0.208850000000     0.0269132  
C114     C      0.788820000000     0.775200000000     0.193730000000    -0.00504092 
C115     C      0.704360000000     0.730260000000     0.231820000000     0.0305487  
C116     C      0.768430000000     0.797630000000     0.215890000000     0.110876   
C117     C      0.794510000000     0.846720000000     0.212850000000    -0.198723   
C118     C      0.619490000000     0.937720000000     0.374730000000     0.026465   
C119     C      0.555520000000     0.870040000000     0.377810000000    -0.00476304 
C120     C      0.597250000000     0.957270000000     0.399670000000     0.0288282  
C121     C      0.532870000000     0.889020000000     0.404480000000     0.106939   
C122     C      0.485670000000     0.858600000000     0.420620000000    -0.19575    
C123     C      0.028340000000     0.548490000000     0.759950000000     0.024186   
C124     C      0.952470000000     0.504300000000     0.760170000000    -0.00568919 
C125     C      0.028280000000     0.548100000000     0.694230000000     0.0297718  
C126     C      0.951680000000     0.505440000000     0.693890000000     0.109886   
C127     C      0.907910000000     0.480340000000     0.662060000000    -0.200234   
C128     C      0.958830000000     0.455660000000     0.257230000000     0.0256999  
C129     C      0.034730000000     0.487760000000     0.262050000000    -0.00602052 
C130     C      0.960490000000     0.454230000000     0.191760000000     0.0306035  
C131     C      0.036900000000     0.487810000000     0.195770000000     0.112814   
C132     C      0.080700000000     0.503810000000     0.165530000000    -0.202474   
C133     C      0.876910000000     0.567550000000     0.073410000000     0.0256555  
C134     C      0.941430000000     0.634650000000     0.067190000000    -0.00476071 
C135     C      0.898260000000     0.546910000000     0.049970000000     0.0291601  
C136     C      0.963620000000     0.614140000000     0.043450000000     0.110957   
C137     C      0.010930000000     0.642920000000     0.026720000000    -0.200448   
C138     C      0.362900000000     0.152670000000     0.920990000000     0.0246195  
C139     C      0.286730000000     0.116650000000     0.921410000000    -0.0053618  
C140     C      0.362720000000     0.153530000000     0.855200000000     0.0300358  
C141     C      0.285990000000     0.114860000000     0.855090000000     0.109164   
C142     C      0.242090000000     0.093510000000     0.823300000000    -0.199868   
C143     C      0.289310000000     0.171660000000     0.417690000000     0.0252213  
C144     C      0.364770000000     0.218370000000     0.423630000000    -0.00683309 
C145     C      0.291390000000     0.174610000000     0.352160000000     0.0293911  
C146     C      0.367490000000     0.220020000000     0.357330000000     0.111218   
C147     C      0.411260000000     0.248680000000     0.327530000000    -0.202832   
C148     C      0.388620000000     0.038380000000     0.546680000000     0.026453   
C149     C      0.453670000000     0.104560000000     0.535300000000    -0.00535705 
C150     C      0.368520000000     0.060380000000     0.570280000000     0.030191   
C151     C      0.433850000000     0.127270000000     0.558910000000     0.110482   
C152     C      0.461130000000     0.176280000000     0.560110000000    -0.199213   
C153     C      0.112990000000     0.430020000000     0.876050000000     0.024671   
C154     C      0.048250000000     0.363120000000     0.882480000000    -0.00557918 
C155     C      0.092240000000     0.450720000000     0.901510000000     0.0286764  
C156     C      0.026710000000     0.383660000000     0.908440000000     0.112812   
C157     C      0.979760000000     0.354940000000     0.927030000000    -0.203311   
C158     C      0.262400000000     0.288400000000     0.733060000000     0.0264182  
C159     C      0.195790000000     0.223210000000     0.730980000000    -0.00498491 
C160     C      0.282890000000     0.266870000000     0.708720000000     0.0291538  
C161     C      0.215670000000     0.201270000000     0.704950000000     0.107936   
C162     C      0.186220000000     0.153630000000     0.689970000000    -0.19653    
C163     C      0.447780000000     0.493220000000     0.686690000000     0.0257985  
C164     C      0.477390000000     0.447140000000     0.683000000000    -0.00639541 
C165     C      0.445990000000     0.490280000000     0.752330000000     0.030962   
C166     C      0.477290000000     0.445320000000     0.749310000000     0.112214   
C167     C      0.492110000000     0.416710000000     0.780250000000    -0.202427   
C168     C      0.537320000000     0.506310000000     0.247880000000     0.0260474  
C169     C      0.507560000000     0.552190000000     0.253610000000    -0.005806   
C170     C      0.537070000000     0.508310000000     0.182210000000     0.0312259  
C171     C      0.505440000000     0.552940000000     0.187310000000     0.113237   
C172     C      0.489250000000     0.580750000000     0.157470000000    -0.203226   
C173     C      0.846250000000     0.210960000000     0.921410000000     0.0244012  
C174     C      0.877230000000     0.166070000000     0.921050000000    -0.0051828  
C175     C      0.846980000000     0.211770000000     0.855670000000     0.0305846  
C176     C      0.880610000000     0.168780000000     0.854860000000     0.110534   
C177     C      0.899480000000     0.144070000000     0.822520000000    -0.200704   
C178     C      0.826270000000     0.120570000000     0.417650000000     0.0259885  
C179     C      0.780240000000     0.150170000000     0.423480000000    -0.00571818 
C180     C      0.821470000000     0.117560000000     0.352320000000     0.030984   
C181     C      0.776710000000     0.149050000000     0.357310000000     0.113799   
C182     C      0.747570000000     0.163630000000     0.327600000000    -0.203671   
C183     C      0.114720000000     0.289860000000     0.525800000000     0.0251403  
C184     C      0.144700000000     0.365590000000     0.520360000000    -0.00730404 
C185     C      0.112350000000     0.291570000000     0.591190000000     0.0305565  
C186     C      0.144240000000     0.367900000000     0.586610000000     0.112508   
C187     C      0.159260000000     0.411610000000     0.616680000000    -0.203424   
C188     C      0.205900000000     0.359340000000     0.022100000000     0.0248861  
C189     C      0.160880000000     0.283480000000     0.022610000000    -0.00440591 
C190     C      0.205750000000     0.359570000000     0.087870000000     0.0298856  
C191     C      0.162490000000     0.282970000000     0.088900000000     0.109974   
C192     C      0.136900000000     0.239490000000     0.121410000000    -0.200215   
C193     C      0.973040000000     0.266300000000     0.210450000000     0.0256707  
C194     C      0.969840000000     0.198850000000     0.215210000000    -0.00563241 
C195     C      0.014890000000     0.286230000000     0.235620000000     0.0294918  
C196     C      0.011140000000     0.218050000000     0.242660000000     0.108115   
C197     C      0.027500000000     0.187570000000     0.261110000000    -0.196032   
C198     C      0.346850000000     0.453160000000     0.399050000000     0.0253096  
C199     C      0.352300000000     0.390140000000     0.393010000000    -0.00496452 
C200     C      0.305090000000     0.430470000000     0.374470000000     0.0292821  
C201     C      0.310220000000     0.366830000000     0.367700000000     0.112481   
C202     C      0.294300000000     0.320300000000     0.348430000000    -0.20192    
C203     C      0.538020000000     0.038280000000     0.751880000000     0.026121   
C204     C      0.509610000000     0.962760000000     0.757190000000    -0.00568648 
C205     C      0.539080000000     0.036410000000     0.686210000000     0.0318372  
C206     C      0.508920000000     0.960280000000     0.691030000000     0.113595   
C207     C      0.494360000000     0.916620000000     0.660970000000    -0.202468   
C208     C      0.480230000000     0.033860000000     0.188750000000     0.0242932  
C209     C      0.445340000000     0.957660000000     0.188300000000    -0.00507413 
C210     C      0.481230000000     0.033690000000     0.254520000000     0.0303661  
C211     C      0.443870000000     0.956870000000     0.254600000000     0.110127   
C212     C      0.423650000000     0.912940000000     0.286370000000    -0.199807   
C213     C      0.641590000000     0.098330000000     0.039030000000     0.0259999  
C214     C      0.636240000000     0.029950000000     0.045560000000    -0.00478017 
C215     C      0.683270000000     0.117590000000     0.063630000000     0.028831   
C216     C      0.678500000000     0.048990000000     0.070630000000     0.112378   
C217     C      0.694940000000     0.018660000000     0.088990000000    -0.202531   
C218     C      0.174310000000     0.883500000000     0.590490000000     0.0253169  
C219     C      0.206690000000     0.839890000000     0.590840000000    -0.00468383 
C220     C      0.173130000000     0.882280000000     0.524730000000     0.0309014  
C221     C      0.207810000000     0.840260000000     0.524500000000     0.110942   
C222     C      0.226390000000     0.815030000000     0.492750000000    -0.200568   
C223     C      0.115360000000     0.831810000000     0.027120000000     0.0250127  
C224     C      0.140040000000     0.781630000000     0.022360000000    -0.00739812 
C225     C      0.113830000000     0.828780000000     0.092790000000     0.0306726  
C226     C      0.140010000000     0.779480000000     0.088530000000     0.111992   
C227     C      0.151610000000     0.748190000000     0.118860000000    -0.20247    
C228     C      0.346220000000     0.900530000000     0.904550000000     0.0252572  
C229     C      0.350370000000     0.968420000000     0.899360000000    -0.00530335 
C230     C      0.304440000000     0.880830000000     0.880550000000     0.0289815  
C231     C      0.307810000000     0.948830000000     0.875000000000     0.112196   
C232     C      0.290210000000     0.978470000000     0.858490000000    -0.202907   
C233     C      0.825960000000     0.708270000000     0.916390000000     0.026091   
C234     C      0.778430000000     0.632870000000     0.921990000000    -0.00577767 
C235     C      0.822010000000     0.706510000000     0.850860000000     0.0315925  
C236     C      0.775690000000     0.630470000000     0.855790000000     0.113873   
C237     C      0.746030000000     0.586910000000     0.825940000000    -0.203171   
C238     C      0.836800000000     0.631660000000     0.355690000000     0.0253959  
C239     C      0.882850000000     0.707370000000     0.352150000000    -0.0064676  
C240     C      0.838470000000     0.632880000000     0.421360000000     0.0299402  
C241     C      0.883370000000     0.709170000000     0.418480000000     0.112387   
C242     C      0.911410000000     0.752610000000     0.449680000000    -0.202944   
C243     C      0.682770000000     0.631280000000     0.559830000000     0.0263012  
C244     C      0.679920000000     0.564770000000     0.577850000000    -0.00611875 
C245     C      0.640240000000     0.609070000000     0.536800000000     0.030594   
C246     C      0.637040000000     0.542060000000     0.556260000000     0.110742   
C247     C      0.613620000000     0.493120000000     0.563190000000    -0.198045   
C248     C      0.974160000000     0.770480000000     0.706100000000     0.0238118  
C249     C      0.970530000000     0.702860000000     0.712970000000    -0.00645278 
C250     C      0.015450000000     0.790410000000     0.732180000000     0.0298622  
C251     C      0.012360000000     0.722600000000     0.739620000000     0.11247    
C252     C      0.029490000000     0.693050000000     0.759090000000    -0.202034   
Cu1      Cu     0.830600000000     0.704700000000     0.630340000000     0.836242   
Cu2      Cu     0.824850000000     0.633130000000     0.642000000000     0.847162   
Cu3      Cu     0.156030000000     0.868170000000     0.812200000000     0.835319   
Cu4      Cu     0.163330000000     0.803220000000     0.803490000000     0.846841   
Cu5      Cu     0.497760000000     0.035870000000     0.966740000000     0.839279   
Cu6      Cu     0.489740000000     0.963210000000     0.976450000000     0.848594   
Cu7      Cu     0.162160000000     0.360870000000     0.299190000000     0.836321   
Cu8      Cu     0.157990000000     0.290390000000     0.314260000000     0.845924   
Cu9      Cu     0.824980000000     0.192560000000     0.142080000000     0.837524   
Cu10     Cu     0.829740000000     0.126140000000     0.132480000000     0.84788    
Cu11     Cu     0.491270000000     0.533240000000     0.474050000000     0.835831   
Cu12     Cu     0.497620000000     0.467820000000     0.462340000000     0.847247   
Cu13     Cu     0.122220000000     0.291200000000     0.810790000000     0.849789   
Cu14     Cu     0.188800000000     0.362320000000     0.801180000000     0.839455   
Cu15     Cu     0.291260000000     0.130180000000     0.629830000000     0.845145   
Cu16     Cu     0.360430000000     0.197840000000     0.644760000000     0.837794   
Cu17     Cu     0.959150000000     0.466920000000     0.972550000000     0.848018   
Cu18     Cu     0.031950000000     0.531000000000     0.980660000000     0.836231   
Cu19     Cu     0.627410000000     0.800160000000     0.296630000000     0.845255   
Cu20     Cu     0.696930000000     0.868510000000     0.305220000000     0.843404   
Cu21     Cu     0.799170000000     0.634840000000     0.142190000000     0.845917   
Cu22     Cu     0.865240000000     0.706150000000     0.130430000000     0.846944   
Cu23     Cu     0.459120000000     0.962180000000     0.479590000000     0.841748   
Cu24     Cu     0.526020000000     0.032210000000     0.464840000000     0.843615   
Cu25     Cu     0.364710000000     0.170460000000     0.142860000000     0.836136   
Cu26     Cu     0.292380000000     0.162840000000     0.132740000000     0.848486   
Cu27     Cu     0.523380000000     0.496240000000     0.962370000000     0.839918   
Cu28     Cu     0.457750000000     0.502140000000     0.973300000000     0.841178   
Cu29     Cu     0.191410000000     0.829690000000     0.299840000000     0.842982   
Cu30     Cu     0.127490000000     0.838270000000     0.314120000000     0.84159    
Cu31     Cu     0.030780000000     0.506510000000     0.482780000000     0.843167   
Cu32     Cu     0.957740000000     0.496370000000     0.469240000000     0.840274   
Cu33     Cu     0.869500000000     0.164480000000     0.629360000000     0.841133   
Cu34     Cu     0.803330000000     0.168930000000     0.644040000000     0.844897   
Cu35     Cu     0.696560000000     0.833840000000     0.809980000000     0.843361   
Cu36     Cu     0.627270000000     0.831650000000     0.791750000000     0.841325   
H1       H      0.711520000000     0.038730000000     0.698850000000     0.0391205  
H2       H      0.672470000000     0.966800000000     0.741060000000     0.0381051  
H3       H      0.787210000000     0.958150000000     0.739370000000     0.0406675  
H4       H      0.862110000000     0.062190000000     0.716440000000     0.0755926  
H5       H      0.850190000000     0.008730000000     0.697320000000     0.062184   
H6       H      0.846220000000     0.040850000000     0.636430000000     0.080559   
H7       H      0.878900000000     0.370860000000     0.544290000000     0.0332518  
H8       H      0.844010000000     0.299090000000     0.585240000000     0.0360265  
H9       H      0.961210000000     0.295430000000     0.570290000000     0.0461968  
H10      H      0.032360000000     0.399910000000     0.553090000000     0.083392   
H11      H      0.021620000000     0.348770000000     0.522400000000     0.0716603  
H12      H      0.015720000000     0.385040000000     0.471130000000     0.0854788  
H13      H      0.110270000000     0.630400000000     0.408600000000     0.034523   
H14      H      0.146510000000     0.701130000000     0.365310000000     0.0331196  
H15      H      0.030910000000     0.708160000000     0.375400000000     0.045615   
H16      H      0.974170000000     0.619680000000     0.476770000000     0.0849244  
H17      H      0.969460000000     0.655940000000     0.423830000000     0.071833   
H18      H      0.958000000000     0.604110000000     0.394910000000     0.0855928  
H19      H      0.653840000000     0.702200000000     0.864080000000     0.0390361  
H20      H      0.618190000000     0.629960000000     0.906180000000     0.0378953  
H21      H      0.497010000000     0.625910000000     0.898010000000     0.0428329  
H22      H      0.524880000000     0.709490000000     0.795370000000     0.0814355  
H23      H      0.487380000000     0.677970000000     0.855140000000     0.0632027  
H24      H      0.529770000000     0.730740000000     0.875360000000     0.0753991  
H25      H      0.211260000000     0.039800000000     0.210810000000     0.0354368  
H26      H      0.174100000000     0.968710000000     0.253290000000     0.036285   
H27      H      0.287570000000     0.958350000000     0.236320000000     0.045599   
H28      H      0.362090000000     0.062070000000     0.216400000000     0.0853061  
H29      H      0.348950000000     0.009750000000     0.187590000000     0.0721402  
H30      H      0.344260000000     0.046210000000     0.135090000000     0.0858214  
H31      H      0.482450000000     0.371680000000     0.037440000000     0.0350646  
H32      H      0.448740000000     0.300490000000     0.080140000000     0.0356181  
H33      H      0.325150000000     0.291120000000     0.067680000000     0.0452945  
H34      H      0.355480000000     0.378790000000     0.966070000000     0.0849287  
H35      H      0.314710000000     0.342040000000     0.018570000000     0.0714755  
H36      H      0.353780000000     0.394240000000     0.047750000000     0.0841869  
H37      H      0.599630000000     0.766880000000     0.606010000000     0.0319151  
H38      H      0.600810000000     0.766270000000     0.492330000000     0.0359131  
H39      H      0.737150000000     0.851870000000     0.493450000000     0.0424736  
H40      H      0.757900000000     0.837850000000     0.646610000000     0.0825429  
H41      H      0.776790000000     0.876680000000     0.584190000000     0.0659994  
H42      H      0.748060000000     0.883350000000     0.648240000000     0.0821095  
H43      H      0.724810000000     0.898790000000     0.995190000000     0.0315757  
H44      H      0.723860000000     0.900760000000     0.108830000000     0.0326345  
H45      H      0.587160000000     0.817490000000     0.108730000000     0.0423651  
H46      H      0.575310000000     0.783820000000     0.955440000000     0.0792649  
H47      H      0.547190000000     0.792310000000     0.018530000000     0.0654142  
H48      H      0.566660000000     0.830100000000     0.954800000000     0.0808769  
H49      H      0.670960000000     0.710630000000     0.246750000000     0.0383447  
H50      H      0.706550000000     0.673380000000     0.206840000000     0.0393288  
H51      H      0.822290000000     0.793950000000     0.178590000000     0.0445349  
H52      H      0.803060000000     0.860430000000     0.261190000000     0.0809301  
H53      H      0.825390000000     0.858590000000     0.186670000000     0.065204   
H54      H      0.776110000000     0.859550000000     0.187280000000     0.0819334  
H55      H      0.615700000000     0.992020000000     0.406890000000     0.0380365  
H56      H      0.653610000000     0.958170000000     0.364210000000     0.0380157  
H57      H      0.538220000000     0.835310000000     0.369920000000     0.0432675  
H58      H      0.464540000000     0.866340000000     0.391540000000     0.0753575  
H59      H      0.475450000000     0.824150000000     0.411060000000     0.0628655  
H60      H      0.480080000000     0.860630000000     0.471730000000     0.0785191  
H61      H      0.059250000000     0.565630000000     0.670340000000     0.03257    
H62      H      0.059300000000     0.565650000000     0.783890000000     0.0342821  
H63      H      0.922100000000     0.486400000000     0.785500000000     0.0428527  
H64      H      0.906500000000     0.453770000000     0.632920000000     0.0819701  
H65      H      0.880960000000     0.465150000000     0.696650000000     0.0656477  
H66      H      0.901710000000     0.502450000000     0.632640000000     0.081004   
H67      H      0.930090000000     0.441130000000     0.166380000000     0.0347943  
H68      H      0.927370000000     0.442800000000     0.279370000000     0.0360582  
H69      H      0.064630000000     0.501090000000     0.288800000000     0.0429489  
H70      H      0.094870000000     0.538360000000     0.151980000000     0.0800801  
H71      H      0.103460000000     0.501050000000     0.198460000000     0.0667421  
H72      H      0.077860000000     0.484040000000     0.123390000000     0.0818556  
H73      H      0.879090000000     0.512010000000     0.044910000000     0.0361869  
H74      H      0.842760000000     0.547620000000     0.084190000000     0.0366689  
H75      H      0.959150000000     0.669540000000     0.073340000000     0.0462696  
H76      H      0.016630000000     0.637710000000     0.976800000000     0.0827053  
H77      H      0.021570000000     0.677900000000     0.031410000000     0.070272   
H78      H      0.031500000000     0.636280000000     0.058910000000     0.0824469  
H79      H      0.393730000000     0.169100000000     0.831160000000     0.0330987  
H80      H      0.393920000000     0.168210000000     0.944930000000     0.0354146  
H81      H      0.256270000000     0.102320000000     0.946900000000     0.0420593  
H82      H      0.237980000000     0.066050000000     0.793630000000     0.0797124  
H83      H      0.215070000000     0.079970000000     0.857890000000     0.0643533  
H84      H      0.238690000000     0.117610000000     0.794390000000     0.0787818  
H85      H      0.261370000000     0.156150000000     0.326240000000     0.033346   
H86      H      0.257870000000     0.151920000000     0.439450000000     0.0342772  
H87      H      0.394330000000     0.236060000000     0.450860000000     0.0410974  
H88      H      0.408060000000     0.264880000000     0.284770000000     0.080969   
H89      H      0.433280000000     0.274750000000     0.360350000000     0.066017   
H90      H      0.426440000000     0.229050000000     0.314980000000     0.0805745  
H91      H      0.334780000000     0.040930000000     0.583720000000     0.0375699  
H92      H      0.369470000000     0.003410000000     0.542790000000     0.038288   
H93      H      0.487460000000     0.122900000000     0.521600000000     0.0439506  
H94      H      0.467450000000     0.188060000000     0.609590000000     0.0814446  
H95      H      0.493160000000     0.188270000000     0.537290000000     0.0648772  
H96      H      0.444740000000     0.190890000000     0.533560000000     0.0811298  
H97      H      0.111650000000     0.485560000000     0.907140000000     0.034796   
H98      H      0.147030000000     0.449830000000     0.864470000000     0.0353089  
H99      H      0.030210000000     0.328290000000     0.875750000000     0.0463095  
H100     H      0.958540000000     0.361000000000     0.895400000000     0.0851506  
H101     H      0.969260000000     0.319950000000     0.923210000000     0.072021   
H102     H      0.974880000000     0.360770000000     0.977030000000     0.0855064  
H103     H      0.317540000000     0.286040000000     0.701240000000     0.0379129  
H104     H      0.282040000000     0.322740000000     0.743000000000     0.0378891  
H105     H      0.161120000000     0.205100000000     0.739050000000     0.0431571  
H106     H      0.195150000000     0.133430000000     0.719130000000     0.0760062  
H107     H      0.151690000000     0.142450000000     0.700360000000     0.0631711  
H108     H      0.187850000000     0.147680000000     0.638890000000     0.0810246  
H109     H      0.433880000000     0.508580000000     0.777490000000     0.0335702  
H110     H      0.436120000000     0.512740000000     0.664030000000     0.0358846  
H111     H      0.489910000000     0.429610000000     0.656760000000     0.040862   
H112     H      0.472530000000     0.400860000000     0.822990000000     0.0815154  
H113     H      0.488070000000     0.390340000000     0.748030000000     0.0662217  
H114     H      0.526850000000     0.436270000000     0.793070000000     0.0798333  
H115     H      0.548640000000     0.489830000000     0.156320000000     0.0345222  
H116     H      0.549760000000     0.487200000000     0.269690000000     0.0355421  
H117     H      0.495700000000     0.569950000000     0.280710000000     0.0440436  
H118     H      0.454450000000     0.560490000000     0.145430000000     0.0811822  
H119     H      0.492940000000     0.606820000000     0.190010000000     0.0675617  
H120     H      0.508190000000     0.596950000000     0.114390000000     0.0822697  
H121     H      0.834010000000     0.229800000000     0.831890000000     0.0332501  
H122     H      0.832250000000     0.227880000000     0.945530000000     0.0354489  
H123     H      0.888920000000     0.147370000000     0.946140000000     0.0423414  
H124     H      0.928310000000     0.166580000000     0.794400000000     0.080888   
H125     H      0.910340000000     0.127830000000     0.856740000000     0.0647704  
H126     H      0.874650000000     0.118420000000     0.791940000000     0.0792053  
H127     H      0.839060000000     0.105000000000     0.326390000000     0.0331615  
H128     H      0.846350000000     0.109250000000     0.439400000000     0.0344015  
H129     H      0.763410000000     0.163090000000     0.450540000000     0.0444526  
H130     H      0.730650000000     0.143410000000     0.285810000000     0.0819131  
H131     H      0.722100000000     0.160260000000     0.361090000000     0.0683236  
H132     H      0.766940000000     0.198170000000     0.313490000000     0.0823174  
H133     H      0.099830000000     0.261330000000     0.616940000000     0.0332889  
H134     H      0.103010000000     0.258450000000     0.503870000000     0.0341255  
H135     H      0.157520000000     0.395390000000     0.493380000000     0.0429856  
H136     H      0.193870000000     0.426540000000     0.630150000000     0.0818137  
H137     H      0.155740000000     0.433880000000     0.583650000000     0.0661584  
H138     H      0.139450000000     0.408340000000     0.658930000000     0.0810121  
H139     H      0.223550000000     0.390610000000     0.111590000000     0.0324231  
H140     H      0.223190000000     0.390200000000     0.997860000000     0.0346349  
H141     H      0.142440000000     0.253040000000     0.997570000000     0.0421676  
H142     H      0.111400000000     0.239290000000     0.151620000000     0.0794704  
H143     H      0.120380000000     0.212400000000     0.087260000000     0.0650212  
H144     H      0.158860000000     0.232590000000     0.149950000000     0.079983   
H145     H      0.031180000000     0.321050000000     0.242100000000     0.0372609  
H146     H      0.959140000000     0.286450000000     0.199040000000     0.0375108  
H147     H      0.952650000000     0.164040000000     0.208060000000     0.0433458  
H148     H      0.035480000000     0.190830000000     0.312180000000     0.0810813  
H149     H      0.002890000000     0.152970000000     0.253560000000     0.0632243  
H150     H      0.055970000000     0.194040000000     0.232000000000     0.0755357  
H151     H      0.287990000000     0.448290000000     0.369030000000     0.0352401  
H152     H      0.359890000000     0.487140000000     0.410160000000     0.0359014  
H153     H      0.370450000000     0.373430000000     0.399410000000     0.0458754  
H154     H      0.281720000000     0.314670000000     0.299360000000     0.0848363  
H155     H      0.320630000000     0.312230000000     0.348980000000     0.0711462  
H156     H      0.268940000000     0.297830000000     0.381670000000     0.0850876  
H157     H      0.550380000000     0.066400000000     0.660220000000     0.0343053  
H158     H      0.549420000000     0.069610000000     0.773880000000     0.036423   
H159     H      0.497910000000     0.933020000000     0.784010000000     0.0439135  
H160     H      0.513340000000     0.920220000000     0.617600000000     0.0803268  
H161     H      0.499450000000     0.895010000000     0.693300000000     0.0664586  
H162     H      0.459390000000     0.900720000000     0.649320000000     0.0797999  
H163     H      0.496320000000     0.064710000000     0.278590000000     0.0330047  
H164     H      0.495210000000     0.064920000000     0.164830000000     0.0352892  
H165     H      0.431390000000     0.927180000000     0.162830000000     0.0424623  
H166     H      0.395900000000     0.907960000000     0.316030000000     0.0802561  
H167     H      0.410830000000     0.885920000000     0.251760000000     0.0643449  
H168     H      0.448220000000     0.910360000000     0.315290000000     0.0787791  
H169     H      0.700120000000     0.152520000000     0.068950000000     0.0359088  
H170     H      0.628590000000     0.119290000000     0.027730000000     0.0369254  
H171     H      0.618090000000     0.995080000000     0.039220000000     0.0461407  
H172     H      0.706190000000     0.024370000000     0.138750000000     0.0855252  
H173     H      0.669290000000     0.984060000000     0.085820000000     0.0723192  
H174     H      0.721430000000     0.023210000000     0.056780000000     0.0853429  
H175     H      0.159060000000     0.899230000000     0.500770000000     0.0336599  
H176     H      0.160450000000     0.900620000000     0.614420000000     0.0348474  
H177     H      0.219730000000     0.822490000000     0.616240000000     0.0426549  
H178     H      0.254450000000     0.836990000000     0.462900000000     0.0812658  
H179     H      0.238400000000     0.800060000000     0.527370000000     0.0653045  
H180     H      0.201120000000     0.788280000000     0.464020000000     0.0820571  
H181     H      0.103950000000     0.848710000000     0.118530000000     0.0341654  
H182     H      0.105670000000     0.853070000000     0.004940000000     0.0357816  
H183     H      0.150280000000     0.762300000000     0.995790000000     0.0424469  
H184     H      0.132100000000     0.733730000000     0.162140000000     0.080481   
H185     H      0.144680000000     0.720880000000     0.086610000000     0.0648541  
H186     H      0.186600000000     0.765230000000     0.130680000000     0.0803527  
H187     H      0.288190000000     0.845950000000     0.874880000000     0.0355086  
H188     H      0.359690000000     0.879880000000     0.915100000000     0.0357754  
H189     H      0.368110000000     0.003250000000     0.906110000000     0.0456195  
H190     H      0.263140000000     0.972280000000     0.890610000000     0.0845862  
H191     H      0.315060000000     0.013240000000     0.863460000000     0.0717488  
H192     H      0.279390000000     0.973640000000     0.808540000000     0.0854303  
H193     H      0.840510000000     0.736530000000     0.824890000000     0.0341644  
H194     H      0.846370000000     0.739550000000     0.938250000000     0.0359739  
H195     H      0.760640000000     0.603170000000     0.948950000000     0.0444886  
H196     H      0.764830000000     0.570940000000     0.812850000000     0.0809025  
H197     H      0.719900000000     0.565280000000     0.858950000000     0.0676154  
H198     H      0.729960000000     0.590690000000     0.783480000000     0.0815892  
H199     H      0.819810000000     0.602490000000     0.446400000000     0.0338824  
H200     H      0.817780000000     0.600440000000     0.332950000000     0.0359701  
H201     H      0.900840000000     0.737360000000     0.325910000000     0.0440474  
H202     H      0.926650000000     0.748870000000     0.493130000000     0.0812531  
H203     H      0.938200000000     0.774990000000     0.418100000000     0.0671703  
H204     H      0.891620000000     0.767750000000     0.461380000000     0.0816056  
H205     H      0.626300000000     0.628270000000     0.520410000000     0.0379246  
H206     H      0.699480000000     0.666390000000     0.560700000000     0.0388766  
H207     H      0.694460000000     0.546130000000     0.594420000000     0.0432769  
H208     H      0.609860000000     0.477670000000     0.516360000000     0.0803049  
H209     H      0.631560000000     0.482120000000     0.593830000000     0.0638361  
H210     H      0.581650000000     0.481310000000     0.586080000000     0.0810219  
H211     H      0.031490000000     0.825290000000     0.737810000000     0.035344   
H212     H      0.960590000000     0.790840000000     0.694140000000     0.0352246  
H213     H      0.953210000000     0.668020000000     0.706230000000     0.045143   
H214     H      0.040220000000     0.699040000000     0.809080000000     0.0837551  
H215     H      0.004370000000     0.658260000000     0.755800000000     0.0704636  
H216     H      0.056530000000     0.698130000000     0.727650000000     0.0840556  
N1       N      0.727190000000     0.957410000000     0.744080000000    -0.171239   
N2       N      0.772950000000     0.041200000000     0.693060000000    -0.189328   
N3       N      0.900090000000     0.291860000000     0.580940000000    -0.169955   
N4       N      0.941450000000     0.376460000000     0.532480000000    -0.190087   
N5       N      0.091310000000     0.709960000000     0.366800000000    -0.170681   
N6       N      0.048130000000     0.626170000000     0.418090000000    -0.190215   
N7       N      0.555010000000     0.622860000000     0.906050000000    -0.170744   
N8       N      0.596200000000     0.706890000000     0.855360000000    -0.189389   
N9       N      0.228140000000     0.958150000000     0.248080000000    -0.170149   
N10      N      0.272300000000     0.042180000000     0.197750000000    -0.190016   
N11      N      0.384300000000     0.290500000000     0.077380000000    -0.170597   
N12      N      0.423840000000     0.374440000000     0.026840000000    -0.190372   
N13      N      0.669000000000     0.810360000000     0.484980000000    -0.170476   
N14      N      0.667930000000     0.809350000000     0.616390000000    -0.191341   
N15      N      0.655480000000     0.857860000000     0.116700000000    -0.171119   
N16      N      0.656300000000     0.857200000000     0.985250000000    -0.1917     
N17      N      0.767310000000     0.730940000000     0.190540000000    -0.170019   
N18      N      0.725930000000     0.774640000000     0.236760000000    -0.189725   
N19      N      0.598540000000     0.894210000000     0.363360000000    -0.170712   
N20      N      0.553990000000     0.933480000000     0.414390000000    -0.189654   
N21      N      0.990720000000     0.524370000000     0.792550000000    -0.171592   
N22      N      0.990420000000     0.525560000000     0.661010000000    -0.191499   
N23      N      0.996040000000     0.473980000000     0.292050000000    -0.170967   
N24      N      0.999450000000     0.473210000000     0.160880000000    -0.191911   
N25      N      0.898300000000     0.611380000000     0.081660000000    -0.170163   
N26      N      0.941530000000     0.569560000000     0.035090000000    -0.189755   
N27      N      0.325010000000     0.136760000000     0.953730000000    -0.171127   
N28      N      0.324610000000     0.136000000000     0.822100000000    -0.190992   
N29      N      0.326140000000     0.192300000000     0.453150000000    -0.170852   
N30      N      0.330540000000     0.195950000000     0.321930000000    -0.191639   
N31      N      0.431190000000     0.060440000000     0.529430000000    -0.170548   
N32      N      0.390780000000     0.104610000000     0.577310000000    -0.189997   
N33      N      0.091150000000     0.386270000000     0.866690000000    -0.170538   
N34      N      0.049130000000     0.428200000000     0.917230000000    -0.190453   
N35      N      0.218950000000     0.266460000000     0.744650000000    -0.170722   
N36      N      0.260060000000     0.223390000000     0.694730000000    -0.18953    
N37      N      0.464930000000     0.472940000000     0.652340000000    -0.170171   
N38      N      0.463680000000     0.469230000000     0.783700000000    -0.191335   
N39      N      0.521270000000     0.527070000000     0.283390000000    -0.169851   
N40      N      0.518420000000     0.528900000000     0.151970000000    -0.191017   
N41      N      0.858870000000     0.185920000000     0.953610000000    -0.171012   
N42      N      0.862810000000     0.189780000000     0.822190000000    -0.190903   
N43      N      0.806820000000     0.138170000000     0.452840000000    -0.170245   
N44      N      0.799530000000     0.134690000000     0.321920000000    -0.19171    
N45      N      0.132290000000     0.326990000000     0.490750000000    -0.170796   
N46      N      0.130060000000     0.330610000000     0.621760000000    -0.19174    
N47      N      0.181290000000     0.321610000000     0.989860000000    -0.171414   
N48      N      0.183270000000     0.321830000000     0.121390000000    -0.191214   
N49      N      0.950840000000     0.222720000000     0.199520000000    -0.170349   
N50      N      0.034460000000     0.262640000000     0.251340000000    -0.189637   
N51      N      0.370430000000     0.433020000000     0.408450000000    -0.169931   
N52      N      0.286080000000     0.387220000000     0.359790000000    -0.18998    
N53      N      0.521820000000     0.001250000000     0.787050000000    -0.169918   
N54      N      0.521560000000     0.997290000000     0.655910000000    -0.191733   
N55      N      0.464790000000     0.995990000000     0.155990000000    -0.17098    
N56      N      0.464400000000     0.995570000000     0.287560000000    -0.190989   
N57      N      0.617980000000     0.054570000000     0.030120000000    -0.16983    
N58      N      0.702380000000     0.093550000000     0.078930000000    -0.189766   
N59      N      0.188640000000     0.860090000000     0.623250000000    -0.17095    
N60      N      0.188530000000     0.859750000000     0.491590000000    -0.19063    
N61      N      0.130150000000     0.809600000000     0.992230000000    -0.170852   
N62      N      0.129330000000     0.805460000000     0.123420000000    -0.191764   
N63      N      0.369340000000     0.944270000000     0.913760000000    -0.169975   
N64      N      0.284590000000     0.904310000000     0.866000000000    -0.189561   
N65      N      0.805300000000     0.671270000000     0.951620000000    -0.170022   
N66      N      0.799650000000     0.667480000000     0.820480000000    -0.191562   
N67      N      0.857590000000     0.669060000000     0.321340000000    -0.170224   
N68      N      0.858810000000     0.671680000000     0.452640000000    -0.191778   
N69      N      0.702750000000     0.609070000000     0.579360000000    -0.169816   
N70      N      0.617660000000     0.564650000000     0.533080000000    -0.1894     
N71      N      0.951600000000     0.726750000000     0.696660000000    -0.1703     
N72      N      0.035200000000     0.767110000000     0.748410000000    -0.190064   
O1       O      0.766910000000     0.671640000000     0.603050000000    -0.390186   
O2       O      0.893000000000     0.730260000000     0.658690000000    -0.397866   
O3       O      0.848890000000     0.703860000000     0.539890000000    -0.399973   
O4       O      0.813300000000     0.699340000000     0.722620000000    -0.396853   
O5       O      0.807220000000     0.634280000000     0.732700000000    -0.40128    
O6       O      0.842160000000     0.638530000000     0.549710000000    -0.399191   
O7       O      0.888040000000     0.665700000000     0.668550000000    -0.397345   
O8       O      0.762660000000     0.607530000000     0.614920000000    -0.4024     
O9       O      0.093720000000     0.829980000000     0.785060000000    -0.398166   
O10      O      0.219620000000     0.900300000000     0.838430000000    -0.399314   
O11      O      0.172870000000     0.878840000000     0.719440000000    -0.396562   
O12      O      0.138780000000     0.850480000000     0.903690000000    -0.394946   
O13      O      0.145590000000     0.791850000000     0.895350000000    -0.400702   
O14      O      0.181320000000     0.821090000000     0.712850000000    -0.398825   
O15      O      0.225380000000     0.841260000000     0.831460000000    -0.399842   
O16      O      0.100110000000     0.771380000000     0.776220000000    -0.401622   
O17      O      0.560090000000     0.059790000000     0.993590000000    -0.39684    
O18      O      0.434100000000     0.004700000000     0.940810000000    -0.393203   
O19      O      0.481170000000     0.030300000000     0.059590000000    -0.395251   
O20      O      0.514660000000     0.034650000000     0.875290000000    -0.393911   
O21      O      0.507010000000     0.968870000000     0.884490000000    -0.398727   
O22      O      0.472030000000     0.963820000000     0.067010000000    -0.398383   
O23      O      0.427680000000     0.939410000000     0.948790000000    -0.399331   
O24      O      0.553110000000     0.994350000000     0.003320000000    -0.394499   
O25      O      0.225400000000     0.388250000000     0.324470000000    -0.39653    
O26      O      0.098000000000     0.326030000000     0.275260000000    -0.393121   
O27      O      0.146720000000     0.357880000000     0.392050000000    -0.396263   
O28      O      0.178020000000     0.357470000000     0.208070000000    -0.396246   
O29      O      0.173350000000     0.293350000000     0.221650000000    -0.405679   
O30      O      0.141510000000     0.293360000000     0.404920000000    -0.398509   
O31      O      0.095410000000     0.263130000000     0.288880000000    -0.409788   
O32      O      0.221570000000     0.324660000000     0.338020000000    -0.403025   
O33      O      0.762390000000     0.155860000000     0.114300000000    -0.398143   
O34      O      0.888590000000     0.222760000000     0.169170000000    -0.391259   
O35      O      0.842440000000     0.203710000000     0.049840000000    -0.396521   
O36      O      0.807040000000     0.174610000000     0.233050000000    -0.399775   
O37      O      0.812190000000     0.115030000000     0.224580000000    -0.400308   
O38      O      0.848360000000     0.144510000000     0.041840000000    -0.397236   
O39      O      0.891610000000     0.162010000000     0.160990000000    -0.401693   
O40      O      0.766650000000     0.096070000000     0.105300000000    -0.402679   
O41      O      0.428750000000     0.495950000000     0.445530000000    -0.394066   
O42      O      0.554970000000     0.563980000000     0.501920000000    -0.390084   
O43      O      0.508520000000     0.545450000000     0.381790000000    -0.395096   
O44      O      0.473210000000     0.514130000000     0.564600000000    -0.395081   
O45      O      0.480460000000     0.455800000000     0.554800000000    -0.398413   
O46      O      0.515020000000     0.486720000000     0.371370000000    -0.395541   
O47      O      0.559490000000     0.504460000000     0.490140000000    -0.406909   
O48      O      0.434580000000     0.436830000000     0.435900000000    -0.397736   
O49      O      0.092540000000     0.324550000000     0.838610000000    -0.396473   
O50      O      0.157890000000     0.264920000000     0.781930000000    -0.401558   
O51      O      0.140580000000     0.290670000000     0.901250000000    -0.397781   
O52      O      0.110990000000     0.298010000000     0.718920000000    -0.399831   
O53      O      0.170680000000     0.362570000000     0.710280000000    -0.399516   
O54      O      0.199830000000     0.355700000000     0.893470000000    -0.396664   
O55      O      0.218590000000     0.328670000000     0.773950000000    -0.393144   
O56      O      0.152720000000     0.388630000000     0.829280000000    -0.399417   
O57      O      0.262200000000     0.163700000000     0.656910000000    -0.408274   
O58      O      0.327300000000     0.103020000000     0.603960000000    -0.397259   
O59      O      0.295530000000     0.117550000000     0.722040000000    -0.404298   
O60      O      0.292950000000     0.149800000000     0.539480000000    -0.397437   
O61      O      0.356490000000     0.210210000000     0.552100000000    -0.397552   
O62      O      0.358300000000     0.178400000000     0.735600000000    -0.396166   
O63      O      0.389510000000     0.164110000000     0.617990000000    -0.404073   
O64      O      0.324090000000     0.225130000000     0.669840000000    -0.394873   
O65      O      0.989360000000     0.433970000000     0.945110000000    -0.40247    
O66      O      0.936250000000     0.505850000000     0.000680000000    -0.400257   
O67      O      0.959100000000     0.484940000000     0.881900000000    -0.39867    
O68      O      0.965700000000     0.455570000000     0.064390000000    -0.400729   
O69      O      0.031740000000     0.513180000000     0.071770000000    -0.400973   
O70      O      0.025610000000     0.542090000000     0.888350000000    -0.398194   
O71      O      0.001580000000     0.564040000000     0.007500000000    -0.400357   
O72      O      0.054830000000     0.491860000000     0.953040000000    -0.400831   
O73      O      0.599090000000     0.834020000000     0.326070000000    -0.399287   
O74      O      0.662880000000     0.772720000000     0.267890000000    -0.394966   
O75      O      0.635450000000     0.789760000000     0.388490000000    -0.396711   
O76      O      0.625440000000     0.817740000000     0.206100000000    -0.397064   
O77      O      0.689190000000     0.878630000000     0.213080000000    -0.399587   
O78      O      0.698680000000     0.851190000000     0.395990000000    -0.396553   
O79      O      0.725140000000     0.834470000000     0.276630000000    -0.405471   
O80      O      0.661550000000     0.896210000000     0.332880000000    -0.394631   
O81      O      0.768840000000     0.668360000000     0.167480000000    -0.392262   
O82      O      0.835930000000     0.608790000000     0.115980000000    -0.397345   
O83      O      0.817350000000     0.636140000000     0.233140000000    -0.39661    
O84      O      0.787720000000     0.639680000000     0.049670000000    -0.396854   
O85      O      0.847100000000     0.704330000000     0.038920000000    -0.394912   
O86      O      0.876100000000     0.701390000000     0.223580000000    -0.395501   
O87      O      0.895860000000     0.673040000000     0.106350000000    -0.395692   
O88      O      0.828750000000     0.732340000000     0.155410000000    -0.400434   
O89      O      0.430880000000     0.997240000000     0.505580000000    -0.395781   
O90      O      0.493560000000     0.934110000000     0.452260000000    -0.409413   
O91      O      0.478980000000     0.964080000000     0.569750000000    -0.402226   
O92      O      0.446320000000     0.966350000000     0.387520000000    -0.4042     
O93      O      0.506530000000     0.029730000000     0.374010000000    -0.396667   
O94      O      0.538490000000     0.028400000000     0.557470000000    -0.397162   
O95      O      0.554270000000     0.996770000000     0.439810000000    -0.395668   
O96      O      0.491400000000     0.060390000000     0.491260000000    -0.398632   
O97      O      0.333150000000     0.106950000000     0.169570000000    -0.399784   
O98      O      0.389020000000     0.232640000000     0.115200000000    -0.399601   
O99      O      0.363700000000     0.188110000000     0.233940000000    -0.399187   
O100     O      0.359120000000     0.153330000000     0.050240000000    -0.395778   
O101     O      0.292830000000     0.144430000000     0.042400000000    -0.397805   
O102     O      0.298150000000     0.180710000000     0.224530000000    -0.40077    
O103     O      0.323850000000     0.226070000000     0.105000000000    -0.396101   
O104     O      0.268330000000     0.100920000000     0.161390000000    -0.400749   
O105     O      0.486250000000     0.433780000000     0.990470000000    -0.399752   
O106     O      0.554040000000     0.559880000000     0.935240000000    -0.392127   
O107     O      0.535380000000     0.513670000000     0.054390000000    -0.397555   
O108     O      0.504690000000     0.478140000000     0.871790000000    -0.400975   
O109     O      0.445910000000     0.484510000000     0.880940000000    -0.397688   
O110     O      0.476820000000     0.520320000000     0.064230000000    -0.399034   
O111     O      0.494040000000     0.564050000000     0.944870000000    -0.4026     
O112     O      0.427100000000     0.439020000000     0.000300000000    -0.402786   
O113     O      0.223600000000     0.893060000000     0.273110000000    -0.39513    
O114     O      0.153440000000     0.767710000000     0.328040000000    -0.403991   
O115     O      0.170850000000     0.812170000000     0.209810000000    -0.401629   
O116     O      0.205090000000     0.846770000000     0.391700000000    -0.403745   
O117     O      0.147530000000     0.854620000000     0.404930000000    -0.396294   
O118     O      0.114250000000     0.821960000000     0.221580000000    -0.397049   
O119     O      0.095080000000     0.774520000000     0.339850000000    -0.393956   
O120     O      0.165820000000     0.900600000000     0.287100000000    -0.397733   
O121     O      0.000970000000     0.442880000000     0.507510000000    -0.4016     
O122     O      0.053380000000     0.568640000000     0.456600000000    -0.400847   
O123     O      0.026790000000     0.522060000000     0.573860000000    -0.397575   
O124     O      0.027890000000     0.490700000000     0.390110000000    -0.397849   
O125     O      0.961080000000     0.479860000000     0.378850000000    -0.397882   
O126     O      0.960760000000     0.512670000000     0.561260000000    -0.405774   
O127     O      0.987830000000     0.560110000000     0.443380000000    -0.399276   
O128     O      0.935200000000     0.434140000000     0.496470000000    -0.39982    
O129     O      0.898990000000     0.228220000000     0.604800000000    -0.394645   
O130     O      0.834000000000     0.101760000000     0.655400000000    -0.407308   
O131     O      0.849900000000     0.147640000000     0.538650000000    -0.396859   
O132     O      0.881860000000     0.180150000000     0.722010000000    -0.402946   
O133     O      0.822560000000     0.185050000000     0.735060000000    -0.396368   
O134     O      0.790790000000     0.153100000000     0.551400000000    -0.3961     
O135     O      0.774010000000     0.104990000000     0.668360000000    -0.394102   
O136     O      0.839010000000     0.231940000000     0.618250000000    -0.397183   
O137     O      0.660330000000     0.769930000000     0.833650000000    -0.394364   
O138     O      0.725640000000     0.896790000000     0.784010000000    -0.401581   
O139     O      0.692240000000     0.850260000000     0.900430000000    -0.396764   
O140     O      0.694850000000     0.818560000000     0.717460000000    -0.401803   
O141     O      0.631800000000     0.815750000000     0.701200000000    -0.398146   
O142     O      0.628830000000     0.846630000000     0.884350000000    -0.403376   
O143     O      0.663250000000     0.895560000000     0.768690000000    -0.394803   
O144     O      0.598350000000     0.768560000000     0.816580000000    -0.407362   


