data_structure

_audit_creation_method RASPA-1.0
_audit_creation_date 2023-6-5
_audit_author_name 'Poobodin Mano'

_cell_length_a    35.5437
_cell_length_b    35.3503
_cell_length_c    21.3042
_cell_angle_alpha 89.9801
_cell_angle_beta  90.02
_cell_angle_gamma 119.984
_cell_volume      23185.8

_symmetry_cell_setting          triclinic
_symmetry_space_group_name_Hall 'P 1'
_symmetry_space_group_name_H-M  'P 1'
_symmetry_Int_Tables_number     1

_symmetry_equiv_pos_as_xyz 'x,y,z'

loop_
_atom_site_label
_atom_site_type_symbol
_atom_site_fract_x
_atom_site_fract_y
_atom_site_fract_z
_atom_site_charge
Br1      Br     0.862980000000     0.054600000000     0.715740000000    -0.203293   
Br2      Br     0.987450000000     0.425610000000     0.634270000000    -0.248957   
Br3      Br     0.014510000000     0.708580000000     0.348970000000    -0.210754   
Br4      Br     0.653630000000     0.685150000000     0.758780000000    -0.197837   
Br5      Br     0.143510000000     0.961520000000     0.233360000000    -0.201489   
Br6      Br     0.359750000000     0.375010000000     0.011130000000    -0.207426   
Br7      Br     0.764100000000     0.876970000000     0.614650000000    -0.204811   
Br8      Br     0.668030000000     0.766900000000     0.981990000000    -0.209303   
Br9      Br     0.674170000000     0.640390000000     0.188670000000    -0.210649   
Br10     Br     0.473850000000     0.866600000000     0.385840000000    -0.216788   
Br11     Br     0.054260000000     0.483630000000     0.693660000000    -0.18362    
Br12     Br     0.893070000000     0.415780000000     0.283470000000    -0.207423   
Br13     Br     0.837650000000     0.467900000000     0.021990000000    -0.206067   
Br14     Br     0.341300000000     0.079550000000     0.978010000000    -0.20957    
Br15     Br     0.360530000000     0.116390000000     0.475400000000    -0.369521   
Br16     Br     0.535340000000     0.163930000000     0.538910000000    -0.196334   
Br17     Br     0.132520000000     0.517920000000     0.896690000000    -0.197485   
Br18     Br     0.332230000000     0.257020000000     0.813140000000    -0.278929   
Br19     Br     0.576970000000     0.566760000000     0.787770000000    -0.268123   
Br20     Br     0.455020000000     0.552640000000     0.294270000000    -0.218926   
Br21     Br     0.766490000000     0.187330000000     0.978010000000    -0.281358   
Br22     Br     0.760620000000     0.194170000000     0.471180000000    -0.215466   
Br23     Br     0.071690000000     0.234720000000     0.498440000000    -0.211485   
Br24     Br     0.220470000000     0.425140000000     0.994670000000    -0.208392   
Br25     Br     0.945260000000     0.142170000000     0.235880000000    -0.211288   
Br26     Br     0.367160000000     0.347590000000     0.446800000000    -0.220108   
Br27     Br     0.463740000000     0.912090000000     0.780880000000    -0.220152   
Br28     Br     0.525940000000     0.115630000000     0.274440000000    -0.201683   
Br29     Br     0.684260000000     0.021580000000     0.155450000000    -0.22212    
Br30     Br     0.154030000000     0.924540000000     0.480210000000    -0.198541   
Br31     Br     0.171310000000     0.748920000000     0.117190000000    -0.215972   
Br32     Br     0.297100000000     0.996620000000     0.835070000000    -0.203794   
Br33     Br     0.828840000000     0.757530000000     0.952420000000    -0.197833   
Br34     Br     0.798370000000     0.566210000000     0.459640000000    -0.194313   
Br35     Br     0.705530000000     0.515900000000     0.584500000000    -0.187351   
Br36     Br     0.949530000000     0.808330000000     0.713050000000    -0.201561   
C1       C      0.916700000000     0.707640000000     0.670840000000     0.414436   
C2       C      0.750210000000     0.622310000000     0.599410000000     0.419193   
C3       C      0.811820000000     0.662480000000     0.755240000000     0.406117   
C4       C      0.851940000000     0.664660000000     0.512900000000     0.414632   
C5       C      0.252020000000     0.890020000000     0.833490000000     0.41415    
C6       C      0.084800000000     0.795910000000     0.766560000000     0.403739   
C7       C      0.148430000000     0.824180000000     0.921760000000     0.404199   
C8       C      0.187520000000     0.860220000000     0.678990000000     0.4059     
C9       C      0.421340000000     0.974170000000     0.924970000000     0.406005   
C10      C      0.587380000000     0.045200000000     0.995120000000     0.404593   
C11      C      0.523070000000     0.008310000000     0.838380000000     0.414826   
C12      C      0.485740000000     0.012440000000     0.080190000000     0.404752   
C13      C      0.078770000000     0.292410000000     0.285150000000     0.408149   
C14      C      0.244970000000     0.371210000000     0.355710000000     0.405629   
C15      C      0.182100000000     0.334250000000     0.199080000000     0.40649    
C16      C      0.139990000000     0.327880000000     0.440520000000     0.419799   
C17      C      0.746740000000     0.120480000000     0.113120000000     0.422512   
C18      C      0.911480000000     0.207890000000     0.188370000000     0.415871   
C19      C      0.847270000000     0.182960000000     0.030700000000     0.421582   
C20      C      0.808980000000     0.146750000000     0.272200000000     0.408005   
C21      C      0.583070000000     0.541000000000     0.501400000000     0.406354   
C22      C      0.413960000000     0.454060000000     0.446660000000     0.41737    
C23      C      0.485040000000     0.483050000000     0.595080000000     0.409936   
C24      C      0.513580000000     0.515190000000     0.351130000000     0.42054    
C25      C      0.118280000000     0.367650000000     0.850290000000     0.408971   
C26      C      0.204320000000     0.285850000000     0.786520000000     0.406458   
C27      C      0.179040000000     0.327210000000     0.940530000000     0.417358   
C28      C      0.144160000000     0.329230000000     0.697660000000     0.40696    
C29      C      0.289960000000     0.206420000000     0.687260000000     0.420609   
C30      C      0.385170000000     0.135640000000     0.622620000000     0.413405   
C31      C      0.345670000000     0.163890000000     0.775310000000     0.415941   
C32      C      0.330190000000     0.179310000000     0.531160000000     0.428014   
C33      C      0.030020000000     0.451250000000     0.931840000000     0.41713    
C34      C      0.941470000000     0.531290000000     0.993050000000     0.415217   
C35      C      0.979700000000     0.502030000000     0.840180000000     0.415664   
C36      C      0.989410000000     0.478010000000     0.083840000000     0.409514   
C37      C      0.621640000000     0.880300000000     0.327470000000     0.407643   
C38      C      0.700140000000     0.791040000000     0.263620000000     0.405597   
C39      C      0.666460000000     0.822170000000     0.417070000000     0.408898   
C40      C      0.656040000000     0.848500000000     0.174330000000     0.411786   
C41      C      0.779610000000     0.701870000000     0.169430000000     0.418699   
C42      C      0.862490000000     0.618510000000     0.095900000000     0.40624    
C43      C      0.840790000000     0.657710000000     0.254300000000     0.404836   
C44      C      0.803850000000     0.664880000000     0.012680000000     0.419229   
C45      C      0.467990000000     0.061070000000     0.495140000000     0.419651   
C46      C      0.541740000000     0.968880000000     0.421960000000     0.415596   
C47      C      0.520560000000     0.007840000000     0.580140000000     0.404101   
C48      C      0.488600000000     0.021050000000     0.338340000000     0.417243   
C49      C      0.384020000000     0.259650000000     0.122700000000     0.407691   
C50      C      0.295810000000     0.090580000000     0.179410000000     0.412117   
C51      C      0.335820000000     0.159930000000     0.030700000000     0.430099   
C52      C      0.343820000000     0.189720000000     0.275120000000     0.411829   
C53      C      0.465800000000     0.422090000000     0.008050000000     0.418904   
C54      C      0.547530000000     0.587950000000     0.934630000000     0.413621   
C55      C      0.520350000000     0.525690000000     0.093420000000     0.410168   
C56      C      0.496100000000     0.485880000000     0.851020000000     0.423661   
C57      C      0.205650000000     0.919670000000     0.264670000000     0.419612   
C58      C      0.120110000000     0.752590000000     0.335580000000     0.418034   
C59      C      0.145270000000     0.815110000000     0.179670000000     0.418425   
C60      C      0.182060000000     0.858690000000     0.421090000000     0.41814    
C61      C      0.037350000000     0.583410000000     0.429240000000     0.406231   
C62      C      0.949990000000     0.417320000000     0.499630000000     0.425599   
C63      C      0.987110000000     0.479240000000     0.341400000000     0.424019   
C64      C      0.002200000000     0.516130000000     0.583820000000     0.42698    
C65      C      0.871500000000     0.259180000000     0.619050000000     0.406091   
C66      C      0.796460000000     0.091380000000     0.685080000000     0.415493   
C67      C      0.817990000000     0.155410000000     0.530130000000     0.415688   
C68      C      0.847970000000     0.194320000000     0.773480000000     0.405092   
C69      C      0.627610000000     0.750070000000     0.824230000000     0.426139   
C70      C      0.713290000000     0.919840000000     0.769730000000     0.407901   
C71      C      0.673310000000     0.850140000000     0.919280000000     0.422501   
C72      C      0.668720000000     0.820170000000     0.674950000000     0.422416   
C73      C      0.712030000000     0.983400000000     0.736760000000     0.0329279  
C74      C      0.778890000000     0.985010000000     0.743340000000     0.00375024 
C75      C      0.733220000000     0.026220000000     0.714840000000     0.0383353  
C76      C      0.800560000000     0.028090000000     0.720770000000     0.157088   
C77      C      0.867750000000     0.308510000000     0.548470000000     0.0324743  
C78      C      0.929550000000     0.332800000000     0.613650000000     0.000847289
C79      C      0.888100000000     0.348070000000     0.516250000000     0.0477677  
C80      C      0.947900000000     0.374220000000     0.585610000000     0.162946   
C81      C      0.101600000000     0.647590000000     0.395730000000     0.0313023  
C82      C      0.034480000000     0.645680000000     0.394250000000    -0.00163327 
C83      C      0.121670000000     0.689720000000     0.370630000000     0.0385169  
C84      C      0.054170000000     0.687760000000     0.368910000000     0.157024   
C85      C      0.554280000000     0.657420000000     0.920290000000     0.0382775  
C86      C      0.594740000000     0.635610000000     0.857340000000    -0.0117689  
C87      C      0.573480000000     0.697580000000     0.889800000000     0.049797   
C88      C      0.616440000000     0.677170000000     0.829320000000     0.17529    
C89      C      0.293850000000     0.024940000000     0.210440000000     0.036274   
C90      C      0.229010000000     0.027540000000     0.206040000000     0.002837   
C91      C      0.270840000000     0.982160000000     0.232590000000     0.0406855  
C92      C      0.205590000000     0.984660000000     0.228280000000     0.158275   
C93      C      0.448490000000     0.321990000000     0.084970000000     0.032467   
C94      C      0.381040000000     0.319060000000     0.076750000000    -0.000922062
C95      C      0.468340000000     0.362080000000     0.053480000000     0.0387165  
C96      C      0.400290000000     0.358440000000     0.043940000000     0.157057   
C97      C      0.630560000000     0.793310000000     0.513960000000     0.0317233  
C98      C      0.706540000000     0.839930000000     0.512000000000    -3.702e-05  
C99      C      0.631270000000     0.794200000000     0.579310000000     0.0415418  
C100     C      0.707810000000     0.839430000000     0.577480000000     0.157008   
C101     C      0.665660000000     0.884910000000     0.077030000000     0.0341973  
C102     C      0.658660000000     0.814830000000     0.081700000000     0.00188023 
C103     C      0.668920000000     0.884420000000     0.011640000000     0.0446071  
C104     C      0.666730000000     0.816330000000     0.017650000000     0.157011   
C105     C      0.762950000000     0.789630000000     0.228160000000     0.0335933  
C106     C      0.695480000000     0.724520000000     0.230560000000     0.000189476
C107     C      0.782200000000     0.766970000000     0.203090000000     0.0411713  
C108     C      0.714430000000     0.701450000000     0.205130000000     0.158926   
C109     C      0.624910000000     0.945440000000     0.364490000000     0.0347812  
C110     C      0.557290000000     0.880820000000     0.356520000000    -0.00020899 
C111     C      0.604450000000     0.967090000000     0.389020000000     0.0389825  
C112     C      0.536410000000     0.902170000000     0.381350000000     0.155509   
C113     C      0.993730000000     0.545070000000     0.744750000000     0.0320588  
C114     C      0.975130000000     0.467410000000     0.740880000000    -0.000553541
C115     C      0.999750000000     0.548250000000     0.682350000000     0.038425   
C116     C      0.999570000000     0.476430000000     0.680550000000     0.214759   
C117     C      0.026640000000     0.496000000000     0.181210000000     0.0316881  
C118     C      0.950480000000     0.450210000000     0.178870000000    -0.00104353 
C119     C      0.025590000000     0.494760000000     0.246460000000     0.0404881  
C120     C      0.948930000000     0.451150000000     0.244380000000     0.15885    
C121     C      0.924460000000     0.618520000000     0.053280000000     0.0329901  
C122     C      0.857930000000     0.552610000000     0.059950000000     0.000298691
C123     C      0.943420000000     0.596190000000     0.026070000000     0.038235   
C124     C      0.876530000000     0.529930000000     0.032030000000     0.15556    
C125     C      0.342680000000     0.195770000000     0.870220000000     0.0139955  
C126     C      0.343600000000     0.129070000000     0.870280000000     0.0018381  
C127     C      0.336670000000     0.192390000000     0.934940000000     0.0579557  
C128     C      0.341920000000     0.128040000000     0.935760000000     0.164473   
C129     C      0.325110000000     0.210770000000     0.370690000000     0.0365296  
C130     C      0.352420000000     0.161960000000     0.370810000000    -0.00796278 
C131     C      0.322090000000     0.208170000000     0.436090000000     0.0479825  
C132     C      0.345620000000     0.156090000000     0.435260000000     0.192503   
C133     C      0.379040000000     0.083970000000     0.545240000000    -0.0536985  
C134     C      0.452710000000     0.142160000000     0.582630000000    -0.00919282 
C135     C      0.402250000000     0.063120000000     0.515860000000     0.0747508  
C136     C      0.473200000000     0.126810000000     0.546450000000     0.159143   
C137     C      0.053630000000     0.365480000000     0.885830000000     0.0346501  
C138     C      0.117860000000     0.433110000000     0.874250000000     0.00544165 
C139     C      0.032020000000     0.386920000000     0.906920000000     0.0385155  
C140     C      0.096580000000     0.454960000000     0.895460000000     0.159942   
C141     C      0.203000000000     0.228140000000     0.728350000000     0.0318978  
C142     C      0.267420000000     0.279100000000     0.780310000000    -0.00292788 
C143     C      0.224650000000     0.208090000000     0.702290000000     0.0436469  
C144     C      0.287630000000     0.256020000000     0.759670000000     0.167549   
C145     C      0.456230000000     0.448670000000     0.692810000000     0.0356039  
C146     C      0.524190000000     0.513860000000     0.687110000000     0.00110954 
C147     C      0.458310000000     0.451100000000     0.758390000000     0.0438282  
C148     C      0.528030000000     0.514810000000     0.752230000000     0.166957   
C149     C      0.547590000000     0.515460000000     0.189840000000     0.0375438  
C150     C      0.498220000000     0.541650000000     0.190160000000     0.00270226 
C151     C      0.543830000000     0.510610000000     0.254900000000     0.0433558  
C152     C      0.495990000000     0.539000000000     0.255650000000     0.158869   
C153     C      0.881240000000     0.190080000000     0.868170000000     0.0298506  
C154     C      0.821520000000     0.201970000000     0.872440000000    -0.00524098 
C155     C      0.879420000000     0.184770000000     0.933240000000     0.0426466  
C156     C      0.819610000000     0.196880000000     0.937650000000     0.165574   
C157     C      0.825850000000     0.124720000000     0.368750000000     0.0335821  
C158     C      0.785120000000     0.160670000000     0.368510000000     0.00136302 
C159     C      0.830180000000     0.129450000000     0.434070000000     0.0410718  
C160     C      0.787100000000     0.163270000000     0.433960000000     0.155919   
C161     C      0.158700000000     0.367310000000     0.600890000000     0.0330006  
C162     C      0.110950000000     0.291180000000     0.603300000000    -0.000690112
C163     C      0.155840000000     0.366810000000     0.535610000000     0.0407101  
C164     C      0.110040000000     0.290100000000     0.537550000000     0.157763   
C165     C      0.172610000000     0.294540000000     0.104570000000     0.0325277  
C166     C      0.202510000000     0.370870000000     0.100990000000     0.00153978 
C167     C      0.170230000000     0.292830000000     0.039030000000     0.0408623  
C168     C      0.202270000000     0.369750000000     0.035360000000     0.158226   
C169     C      0.016810000000     0.294540000000     0.245840000000     0.0326327  
C170     C      0.014540000000     0.227220000000     0.257510000000     0.000197142
C171     C      0.974660000000     0.272790000000     0.221150000000     0.0385717  
C172     C      0.972560000000     0.205210000000     0.232960000000     0.156146   
C173     C      0.309440000000     0.435500000000     0.387840000000     0.0331828  
C174     C      0.305700000000     0.367260000000     0.394880000000    -0.000335813
C175     C      0.351340000000     0.455770000000     0.412860000000     0.0405004  
C176     C      0.347780000000     0.387310000000     0.419910000000     0.156864   
C177     C      0.553440000000     0.043250000000     0.676210000000     0.031232   
C178     C      0.502020000000     0.968070000000     0.676130000000    -0.000339211
C179     C      0.552880000000     0.043260000000     0.741800000000     0.0402251  
C180     C      0.503160000000     0.967280000000     0.741940000000     0.155676   
C181     C      0.461490000000     0.978180000000     0.179480000000     0.0330517  
C182     C      0.498710000000     0.054980000000     0.172890000000     0.000234697
C183     C      0.461230000000     0.980900000000     0.244760000000     0.0389628  
C184     C      0.500800000000     0.057950000000     0.238690000000     0.156839   
C185     C      0.659140000000     0.105100000000     0.009010000000     0.0473183  
C186     C      0.637620000000     0.038370000000     0.060970000000     4.1834e-05 
C187     C      0.699720000000     0.123450000000     0.038440000000     0.0215388  
C188     C      0.677260000000     0.057190000000     0.093150000000     0.158262   
C189     C      0.209160000000     0.845150000000     0.580950000000     0.0322153  
C190     C      0.177470000000     0.889870000000     0.584270000000     0.000880089
C191     C      0.208830000000     0.846160000000     0.515480000000     0.0394303  
C192     C      0.174840000000     0.889010000000     0.518530000000     0.15771    
C193     C      0.125460000000     0.837510000000     0.020210000000     0.0336711  
C194     C      0.154240000000     0.790290000000     0.014960000000    -0.00133144 
C195     C      0.123000000000     0.833300000000     0.085530000000     0.040011   
C196     C      0.154150000000     0.787930000000     0.080650000000     0.157865   
C197     C      0.356130000000     0.910290000000     0.895810000000     0.0354803  
C198     C      0.360240000000     0.978520000000     0.886030000000     0.00311567 
C199     C      0.314290000000     0.889730000000     0.871330000000     0.0396599  
C200     C      0.317640000000     0.957920000000     0.861660000000     0.15895    
C201     C      0.786720000000     0.624730000000     0.852380000000     0.0347473  
C202     C      0.814510000000     0.700760000000     0.848720000000     0.00357434 
C203     C      0.782760000000     0.625440000000     0.917580000000     0.0426462  
C204     C      0.813080000000     0.702050000000     0.914480000000     0.161199   
C205     C      0.873500000000     0.697060000000     0.348150000000     0.0367672  
C206     C      0.827910000000     0.620740000000     0.352280000000     0.00400399 
C207     C      0.875150000000     0.698690000000     0.413760000000     0.0427168  
C208     C      0.831690000000     0.621770000000     0.417940000000     0.155106   
C209     C      0.647150000000     0.605090000000     0.535440000000     0.0354214  
C210     C      0.644220000000     0.537140000000     0.537750000000     0.00193186 
C211     C      0.688790000000     0.624820000000     0.561390000000     0.0426095  
C212     C      0.685520000000     0.556380000000     0.565000000000     0.160147   
C213     C      0.023580000000     0.730440000000     0.727820000000     0.0310683  
C214     C      0.019620000000     0.794600000000     0.737850000000    -9.13489e-05
C215     C      0.981290000000     0.708730000000     0.703340000000     0.0382665  
C216     C      0.977530000000     0.773370000000     0.713190000000     0.156228   
Cu1      Cu     0.834610000000     0.699740000000     0.627860000000     0.872732   
Cu2      Cu     0.832400000000     0.629520000000     0.641210000000     0.8685     
Cu3      Cu     0.164490000000     0.875270000000     0.805560000000     0.867173   
Cu4      Cu     0.172010000000     0.809930000000     0.795340000000     0.853224   
Cu5      Cu     0.509940000000     0.047260000000     0.951870000000     0.849301   
Cu6      Cu     0.499320000000     0.973380000000     0.966940000000     0.871267   
Cu7      Cu     0.164430000000     0.367710000000     0.315250000000     0.853731   
Cu8      Cu     0.159300000000     0.295720000000     0.324940000000     0.8731     
Cu9      Cu     0.826090000000     0.197890000000     0.156650000000     0.878247   
Cu10     Cu     0.831560000000     0.131290000000     0.145800000000     0.873978   
Cu11     Cu     0.497580000000     0.532340000000     0.479240000000     0.869493   
Cu12     Cu     0.500030000000     0.464260000000     0.466930000000     0.871843   
Cu13     Cu     0.128130000000     0.291420000000     0.824250000000     0.853597   
Cu14     Cu     0.195330000000     0.362690000000     0.813340000000     0.876602   
Cu15     Cu     0.304620000000     0.134820000000     0.652430000000     0.881005   
Cu16     Cu     0.370710000000     0.207980000000     0.654850000000     0.882287   
Cu17     Cu     0.950990000000     0.455380000000     0.959120000000     0.87318    
Cu18     Cu     0.019110000000     0.525900000000     0.964760000000     0.874948   
Cu19     Cu     0.625560000000     0.801740000000     0.293580000000     0.87287    
Cu20     Cu     0.696440000000     0.869800000000     0.297840000000     0.862757   
Cu21     Cu     0.788220000000     0.625270000000     0.138760000000     0.870369   
Cu22     Cu     0.855560000000     0.696240000000     0.128170000000     0.861633   
Cu23     Cu     0.469730000000     0.980720000000     0.463220000000     0.870295   
Cu24     Cu     0.539980000000     0.049030000000     0.455270000000     0.872054   
Cu25     Cu     0.374260000000     0.174020000000     0.155110000000     0.873368   
Cu26     Cu     0.306160000000     0.176770000000     0.150160000000     0.876943   
Cu27     Cu     0.542060000000     0.504940000000     0.970170000000     0.872935   
Cu28     Cu     0.473100000000     0.505960000000     0.974040000000     0.881357   
Cu29     Cu     0.196640000000     0.834050000000     0.295450000000     0.856809   
Cu30     Cu     0.130010000000     0.838560000000     0.305750000000     0.892577   
Cu31     Cu     0.028970000000     0.499020000000     0.464440000000     0.879885   
Cu32     Cu     0.959890000000     0.500030000000     0.460360000000     0.881751   
Cu33     Cu     0.869020000000     0.176680000000     0.647590000000     0.860226   
Cu34     Cu     0.798550000000     0.173940000000     0.655760000000     0.876093   
Cu35     Cu     0.705330000000     0.834880000000     0.800740000000     0.889671   
Cu36     Cu     0.636150000000     0.835010000000     0.793740000000     0.864704   
H1       H      0.713160000000     0.040550000000     0.704330000000     0.0454637  
H2       H      0.677030000000     0.967230000000     0.742020000000     0.0470172  
H3       H      0.797970000000     0.969650000000     0.754230000000     0.078237   
H4       H      0.871380000000     0.352740000000     0.477010000000     0.0510287  
H5       H      0.835700000000     0.283640000000     0.533140000000     0.0596689  
H6       H      0.945140000000     0.328250000000     0.654440000000     0.0644747  
H7       H      0.156420000000     0.705610000000     0.362760000000     0.0466702  
H8       H      0.121530000000     0.632950000000     0.405130000000     0.0456061  
H9       H      0.999700000000     0.629130000000     0.402230000000     0.0737884  
H10      H      0.563820000000     0.720950000000     0.904170000000     0.0468697  
H11      H      0.530270000000     0.650880000000     0.956410000000     0.0468957  
H12      H      0.590920000000     0.607270000000     0.830830000000     0.131168   
H13      H      0.289270000000     0.965950000000     0.242420000000     0.047052   
H14      H      0.328660000000     0.039490000000     0.204350000000     0.051308   
H15      H      0.211310000000     0.044440000000     0.195710000000     0.073025   
H16      H      0.503170000000     0.378010000000     0.046430000000     0.0459158  
H17      H      0.468580000000     0.308450000000     0.099460000000     0.0477425  
H18      H      0.346160000000     0.302660000000     0.083690000000     0.0715667  
H19      H      0.600650000000     0.775850000000     0.604080000000     0.0439441  
H20      H      0.599300000000     0.774960000000     0.490880000000     0.0465439  
H21      H      0.736800000000     0.859070000000     0.486720000000     0.0709321  
H22      H      0.671940000000     0.911910000000     0.984820000000     0.0397797  
H23      H      0.666410000000     0.912740000000     0.099750000000     0.0493056  
H24      H      0.654550000000     0.786840000000     0.108450000000     0.0656241  
H25      H      0.816780000000     0.785690000000     0.193630000000     0.0498079  
H26      H      0.783410000000     0.824430000000     0.236020000000     0.0490572  
H27      H      0.660870000000     0.706680000000     0.240120000000     0.0718613  
H28      H      0.624970000000     0.001250000000     0.401060000000     0.049322   
H29      H      0.659910000000     0.963890000000     0.358920000000     0.0511466  
H30      H      0.537510000000     0.846640000000     0.343960000000     0.0706833  
H31      H      0.006300000000     0.578280000000     0.658930000000     0.0375908  
H32      H      0.995710000000     0.572610000000     0.770360000000     0.0421876  
H33      H      0.962700000000     0.435620000000     0.762990000000     0.0715299  
H34      H      0.056210000000     0.513180000000     0.271210000000     0.0421471  
H35      H      0.057870000000     0.514550000000     0.158090000000     0.0477378  
H36      H      0.920120000000     0.431870000000     0.153520000000     0.0748207  
H37      H      0.977490000000     0.615450000000     0.013650000000     0.0471607  
H38      H      0.944600000000     0.653450000000     0.060260000000     0.0483234  
H39      H      0.823830000000     0.534160000000     0.072540000000     0.0724924  
H40      H      0.333200000000     0.217500000000     0.959170000000     0.0436137  
H41      H      0.340100000000     0.222030000000     0.846240000000     0.112253   
H42      H      0.345160000000     0.103190000000     0.845140000000     0.0744298  
H43      H      0.311080000000     0.227650000000     0.460980000000     0.0436927  
H44      H      0.316040000000     0.231960000000     0.346250000000     0.0480761  
H45      H      0.364370000000     0.143160000000     0.346240000000     0.0753704  
H46      H      0.382730000000     0.032680000000     0.490670000000     0.0454803  
H47      H      0.366490000000     0.093630000000     0.513480000000     0.20568    
H48      H      0.471860000000     0.173330000000     0.606300000000     0.0769207  
H49      H      0.998000000000     0.366760000000     0.919150000000     0.0456337  
H50      H      0.035330000000     0.330130000000     0.882970000000     0.0449821  
H51      H      0.151910000000     0.452540000000     0.861680000000     0.0783675  
H52      H      0.207200000000     0.181040000000     0.670110000000     0.0445552  
H53      H      0.169210000000     0.215570000000     0.715890000000     0.0466358  
H54      H      0.283960000000     0.305050000000     0.814460000000     0.070935   
H55      H      0.431540000000     0.426200000000     0.785530000000     0.0443962  
H56      H      0.427670000000     0.422480000000     0.670360000000     0.0435384  
H57      H      0.549900000000     0.539890000000     0.659770000000     0.0670724  
H58      H      0.562270000000     0.497950000000     0.278610000000     0.0457022  
H59      H      0.567960000000     0.505310000000     0.165790000000     0.0492916  
H60      H      0.478860000000     0.552960000000     0.165790000000     0.071255   
H61      H      0.902830000000     0.178100000000     0.955920000000     0.0401112  
H62      H      0.905480000000     0.186180000000     0.842660000000     0.0493955  
H63      H      0.796720000000     0.206540000000     0.849880000000     0.0717311  
H64      H      0.848720000000     0.117040000000     0.458070000000     0.0486883  
H65      H      0.842210000000     0.109960000000     0.344680000000     0.0540097  
H66      H      0.767930000000     0.174320000000     0.343770000000     0.072763   
H67      H      0.174600000000     0.397560000000     0.510950000000     0.0424098  
H68      H      0.178710000000     0.398440000000     0.623960000000     0.0473987  
H69      H      0.092390000000     0.260710000000     0.628650000000     0.0686715  
H70      H      0.156800000000     0.261160000000     0.016510000000     0.0430433  
H71      H      0.160090000000     0.264010000000     0.129990000000     0.0458577  
H72      H      0.214580000000     0.402200000000     0.124060000000     0.07103    
H73      H      0.960450000000     0.292440000000     0.207200000000     0.0460637  
H74      H      0.033110000000     0.329800000000     0.249990000000     0.0464959  
H75      H      0.028870000000     0.207820000000     0.272240000000     0.0754132  
H76      H      0.367970000000     0.490980000000     0.418120000000     0.0519738  
H77      H      0.295680000000     0.455940000000     0.376240000000     0.0478219  
H78      H      0.288310000000     0.332020000000     0.389640000000     0.0685536  
H79      H      0.573030000000     0.074000000000     0.765830000000     0.0429908  
H80      H      0.573480000000     0.074070000000     0.652380000000     0.0508616  
H81      H      0.480810000000     0.937900000000     0.651530000000     0.0703733  
H82      H      0.446220000000     0.950460000000     0.270870000000     0.0488196  
H83      H      0.446110000000     0.946000000000     0.158220000000     0.0467427  
H84      H      0.513540000000     0.085000000000     0.145850000000     0.0705578  
H85      H      0.727070000000     0.152150000000     0.016390000000     0.112565   
H86      H      0.654030000000     0.124210000000     0.973750000000     0.0489026  
H87      H      0.613740000000     0.004690000000     0.071400000000     0.067699   
H88      H      0.221300000000     0.827990000000     0.490510000000     0.0421971  
H89      H      0.222490000000     0.826930000000     0.603590000000     0.0453968  
H90      H      0.165160000000     0.907900000000     0.609960000000     0.0718833  
H91      H      0.110860000000     0.851430000000     0.111380000000     0.0503727  
H92      H      0.114280000000     0.857860000000     0.998400000000     0.0489885  
H93      H      0.166300000000     0.772300000000     0.988590000000     0.068812   
H94      H      0.297960000000     0.854450000000     0.867330000000     0.0475452  
H95      H      0.369600000000     0.889710000000     0.908220000000     0.0531631  
H96      H      0.377850000000     0.013820000000     0.890340000000     0.0761259  
H97      H      0.770530000000     0.594830000000     0.942740000000     0.0446968  
H98      H      0.776430000000     0.593530000000     0.829900000000     0.0505613  
H99      H      0.826740000000     0.731140000000     0.822980000000     0.0780671  
H100     H      0.893620000000     0.730400000000     0.436040000000     0.0480582  
H101     H      0.890350000000     0.727660000000     0.322660000000     0.0495887  
H102     H      0.808230000000     0.589440000000     0.329420000000     0.0718418  
H103     H      0.704820000000     0.659760000000     0.569390000000     0.052384   
H104     H      0.633150000000     0.625520000000     0.525200000000     0.0492998  
H105     H      0.627430000000     0.502170000000     0.529640000000     0.074561   
H106     H      0.967780000000     0.674730000000     0.690290000000     0.04371    
H107     H      0.040560000000     0.712260000000     0.732570000000     0.0438415  
H108     H      0.033370000000     0.828530000000     0.751550000000     0.0738347  
N1       N      0.734770000000     0.962690000000     0.750760000000    -0.16551    
N2       N      0.777400000000     0.048870000000     0.706210000000    -0.18709    
N3       N      0.889670000000     0.300140000000     0.594180000000    -0.1649     
N4       N      0.929200000000     0.379360000000     0.532470000000    -0.192376   
N5       N      0.057990000000     0.625570000000     0.407380000000    -0.166853   
N6       N      0.098370000000     0.710270000000     0.357550000000    -0.187463   
N7       N      0.566660000000     0.627650000000     0.905970000000    -0.160758   
N8       N      0.606050000000     0.708300000000     0.846940000000    -0.187809   
N9       N      0.272980000000     0.047740000000     0.197860000000    -0.166099   
N10      N      0.226830000000     0.961870000000     0.242410000000    -0.187159   
N11      N      0.404850000000     0.300600000000     0.096650000000    -0.167034   
N12      N      0.444610000000     0.380840000000     0.033660000000    -0.188366   
N13      N      0.667970000000     0.817710000000     0.480610000000    -0.167658   
N14      N      0.669640000000     0.817420000000     0.611070000000    -0.189702   
N15      N      0.659060000000     0.849360000000     0.110930000000    -0.168386   
N16      N      0.670570000000     0.850730000000     0.982730000000    -0.191918   
N17      N      0.719590000000     0.768450000000     0.241780000000    -0.166378   
N18      N      0.758410000000     0.722840000000     0.191770000000    -0.18623    
N19      N      0.601370000000     0.902230000000     0.348690000000    -0.16651    
N20      N      0.560300000000     0.945750000000     0.398190000000    -0.187459   
N21      N      0.981010000000     0.504500000000     0.776730000000    -0.161067   
N22      N      0.000630000000     0.513790000000     0.647130000000    -0.182715   
N23      N      0.989040000000     0.474180000000     0.147650000000    -0.166857   
N24      N      0.986750000000     0.474220000000     0.277860000000    -0.191387   
N25      N      0.881800000000     0.596690000000     0.070630000000    -0.166348   
N26      N      0.919960000000     0.551840000000     0.015750000000    -0.187223   
N27      N      0.344990000000     0.163300000000     0.838620000000    -0.161922   
N28      N      0.337370000000     0.159320000000     0.967230000000    -0.195475   
N29      N      0.341460000000     0.188590000000     0.338860000000    -0.165476   
N30      N      0.331580000000     0.180340000000     0.467610000000    -0.195762   
N31      N      0.406100000000     0.118370000000     0.590240000000    -0.140811   
N32      N      0.448960000000     0.083980000000     0.516950000000    -0.181907   
N33      N      0.096560000000     0.388590000000     0.869610000000    -0.165357   
N34      N      0.053110000000     0.431620000000     0.912070000000    -0.18645    
N35      N      0.225070000000     0.264760000000     0.764750000000    -0.165714   
N36      N      0.267510000000     0.223700000000     0.715550000000    -0.192503   
N37      N      0.488470000000     0.481070000000     0.658200000000    -0.167564   
N38      N      0.494260000000     0.483750000000     0.787440000000    -0.192324   
N39      N      0.523160000000     0.529000000000     0.157460000000    -0.165769   
N40      N      0.517990000000     0.522100000000     0.287730000000    -0.189271   
N41      N      0.851330000000     0.197140000000     0.837680000000    -0.164892   
N42      N      0.849010000000     0.188560000000     0.967460000000    -0.193552   
N43      N      0.805270000000     0.142440000000     0.336090000000    -0.165605   
N44      N      0.811230000000     0.149020000000     0.466660000000    -0.188348   
N45      N      0.137300000000     0.329310000000     0.634430000000    -0.166584   
N46      N      0.133990000000     0.328030000000     0.503930000000    -0.189753   
N47      N      0.186870000000     0.333340000000     0.135350000000    -0.166435   
N48      N      0.184690000000     0.330200000000     0.004380000000    -0.188142   
N49      N      0.036820000000     0.271690000000     0.263350000000    -0.166002   
N50      N      0.952660000000     0.228270000000     0.213470000000    -0.188405   
N51      N      0.286700000000     0.391280000000     0.378550000000    -0.166381   
N52      N      0.371180000000     0.432140000000     0.427700000000    -0.186685   
N53      N      0.526180000000     0.006170000000     0.643620000000    -0.165372   
N54      N      0.527240000000     0.005650000000     0.774740000000    -0.188765   
N55      N      0.481150000000     0.015200000000     0.143680000000    -0.166065   
N56      N      0.482990000000     0.020540000000     0.274520000000    -0.187684   
N57      N      0.628040000000     0.062790000000     0.021010000000    -0.167843   
N58      N      0.707600000000     0.100260000000     0.083010000000    -0.18335    
N59      N      0.192290000000     0.865910000000     0.615220000000    -0.165852   
N60      N      0.189260000000     0.865670000000     0.484370000000    -0.188498   
N61      N      0.142090000000     0.816870000000     0.985160000000    -0.166085   
N62      N      0.139740000000     0.810780000000     0.115870000000    -0.188308   
N63      N      0.379320000000     0.954670000000     0.903080000000    -0.164327   
N64      N      0.294380000000     0.912970000000     0.854690000000    -0.186282   
N65      N      0.803740000000     0.662560000000     0.818250000000    -0.163655   
N66      N      0.798570000000     0.664300000000     0.948850000000    -0.188013   
N67      N      0.848100000000     0.658340000000     0.317710000000    -0.164951   
N68      N      0.853920000000     0.661310000000     0.448850000000    -0.186368   
N69      N      0.624920000000     0.561260000000     0.523600000000    -0.166329   
N70      N      0.708370000000     0.600860000000     0.576260000000    -0.185368   
N71      N      0.042780000000     0.773470000000     0.744700000000    -0.165785   
N72      N      0.958240000000     0.730060000000     0.695030000000    -0.186857   
O1       O      0.897620000000     0.728480000000     0.653580000000    -0.372716   
O2       O      0.770910000000     0.664190000000     0.603540000000    -0.388416   
O3       O      0.818590000000     0.695140000000     0.720680000000    -0.376593   
O4       O      0.850700000000     0.697540000000     0.536410000000    -0.384869   
O5       O      0.848090000000     0.633740000000     0.548690000000    -0.368251   
O6       O      0.814820000000     0.630640000000     0.731710000000    -0.385603   
O7       O      0.769280000000     0.601010000000     0.614630000000    -0.363758   
O8       O      0.896480000000     0.665660000000     0.666830000000    -0.387327   
O9       O      0.228800000000     0.908370000000     0.829050000000    -0.366761   
O10      O      0.101580000000     0.836440000000     0.781020000000    -0.389766   
O11      O      0.149000000000     0.857720000000     0.897240000000    -0.384396   
O12      O      0.179380000000     0.885550000000     0.712470000000    -0.382574   
O13      O      0.187990000000     0.827480000000     0.704260000000    -0.389943   
O14      O      0.156250000000     0.798900000000     0.887750000000    -0.389127   
O15      O      0.107740000000     0.777090000000     0.770430000000    -0.386364   
O16      O      0.234960000000     0.849100000000     0.820870000000    -0.390768   
O17      O      0.445010000000     0.016090000000     0.928360000000    -0.377189   
O18      O      0.573290000000     0.070410000000     0.976140000000    -0.38416    
O19      O      0.524430000000     0.042600000000     0.861130000000    -0.389096   
O20      O      0.495740000000     0.045620000000     0.044850000000    -0.384197   
O21      O      0.483050000000     0.977590000000     0.057070000000    -0.389279   
O22      O      0.515390000000     0.976050000000     0.874360000000    -0.371483   
O23      O      0.562510000000     0.003550000000     0.993920000000    -0.391646   
O24      O      0.437340000000     0.949990000000     0.940100000000    -0.388316   
O25      O      0.100510000000     0.334270000000     0.289640000000    -0.387377   
O26      O      0.227400000000     0.394220000000     0.341750000000    -0.390833   
O27      O      0.181220000000     0.366860000000     0.224240000000    -0.387992   
O28      O      0.147940000000     0.361570000000     0.407620000000    -0.391079   
O29      O      0.142200000000     0.296020000000     0.415630000000    -0.37584    
O30      O      0.175230000000     0.301200000000     0.232570000000    -0.391328   
O31      O      0.223100000000     0.329370000000     0.350340000000    -0.389334   
O32      O      0.096610000000     0.269640000000     0.299100000000    -0.388051   
O33      O      0.764130000000     0.161240000000     0.126410000000    -0.380248   
O34      O      0.889820000000     0.228110000000     0.184440000000    -0.388689   
O35      O      0.842570000000     0.209770000000     0.065600000000    -0.383862   
O36      O      0.808020000000     0.179070000000     0.246410000000    -0.389703   
O37      O      0.817280000000     0.121300000000     0.239300000000    -0.378064   
O38      O      0.846690000000     0.149110000000     0.053990000000    -0.386071   
O39      O      0.894230000000     0.168230000000     0.170210000000    -0.378319   
O40      O      0.767600000000     0.100010000000     0.122080000000    -0.373896   
O41      O      0.562820000000     0.562460000000     0.495540000000    -0.386873   
O42      O      0.432450000000     0.494790000000     0.461680000000    -0.383636   
O43      O      0.489040000000     0.518180000000     0.571440000000    -0.394273   
O44      O      0.507370000000     0.540960000000     0.386070000000    -0.378642   
O45      O      0.514770000000     0.482340000000     0.375040000000    -0.386559   
O46      O      0.485330000000     0.453580000000     0.560260000000    -0.38058    
O47      O      0.436230000000     0.434710000000     0.445580000000    -0.373729   
O48      O      0.563440000000     0.499830000000     0.490200000000    -0.391966   
O49      O      0.098430000000     0.325740000000     0.848320000000    -0.390481   
O50      O      0.163430000000     0.263780000000     0.797580000000    -0.391572   
O51      O      0.146200000000     0.293530000000     0.916180000000    -0.387338   
O52      O      0.117520000000     0.296700000000     0.731590000000    -0.387033   
O53      O      0.178660000000     0.360760000000     0.721960000000    -0.392905   
O54      O      0.205150000000     0.359070000000     0.905710000000    -0.374265   
O55      O      0.225360000000     0.327610000000     0.793070000000    -0.384298   
O56      O      0.158720000000     0.390060000000     0.835690000000    -0.381952   
O57      O      0.270750000000     0.165550000000     0.673930000000    -0.390972   
O58      O      0.344170000000     0.111470000000     0.631370000000    -0.38124    
O59      O      0.315190000000     0.131710000000     0.745280000000    -0.385414   
O60      O      0.301860000000     0.144490000000     0.559070000000    -0.380283   
O61      O      0.360530000000     0.211250000000     0.561700000000    -0.386199   
O62      O      0.373770000000     0.198580000000     0.747210000000    -0.386367   
O63      O      0.404380000000     0.176890000000     0.633460000000    -0.383075   
O64      O      0.330900000000     0.231010000000     0.678080000000    -0.381239   
O65      O      0.988770000000     0.428180000000     0.941160000000    -0.389558   
O66      O      0.920890000000     0.490560000000     0.978390000000    -0.367428   
O67      O      0.951670000000     0.466350000000     0.866290000000    -0.393324   
O68      O      0.956530000000     0.450200000000     0.052180000000    -0.392065   
O69      O      0.021190000000     0.510980000000     0.056600000000    -0.387467   
O70      O      0.009410000000     0.533400000000     0.872460000000    -0.38468    
O71      O      0.983030000000     0.552890000000     0.989350000000    -0.396861   
O72      O      0.049250000000     0.492630000000     0.939590000000    -0.373544   
O73      O      0.598980000000     0.839560000000     0.313480000000    -0.391217   
O74      O      0.659060000000     0.770680000000     0.274190000000    -0.390659   
O75      O      0.631990000000     0.795950000000     0.386680000000    -0.394987   
O76      O      0.626580000000     0.813650000000     0.200840000000    -0.393964   
O77      O      0.687140000000     0.878710000000     0.206180000000    -0.384895   
O78      O      0.698600000000     0.854150000000     0.388910000000    -0.390504   
O79      O      0.722650000000     0.832670000000     0.270880000000    -0.38873    
O80      O      0.663260000000     0.900100000000     0.324080000000    -0.388157   
O81      O      0.759580000000     0.660190000000     0.164510000000    -0.371551   
O82      O      0.822400000000     0.596840000000     0.111760000000    -0.393581   
O83      O      0.806450000000     0.625720000000     0.229960000000    -0.381588   
O84      O      0.777830000000     0.631540000000     0.045920000000    -0.383657   
O85      O      0.837810000000     0.696580000000     0.037710000000    -0.373254   
O86      O      0.866800000000     0.690380000000     0.220230000000    -0.386413   
O87      O      0.883750000000     0.660450000000     0.101080000000    -0.384723   
O88      O      0.820230000000     0.724110000000     0.155640000000    -0.385185   
O89      O      0.444810000000     0.019440000000     0.488050000000    -0.391339   
O90      O      0.501460000000     0.949260000000     0.436650000000    -0.374117   
O91      O      0.485450000000     0.978260000000     0.554260000000    -0.386808   
O92      O      0.461000000000     0.988570000000     0.371270000000    -0.390344   
O93      O      0.523520000000     0.051320000000     0.363870000000    -0.365824   
O94      O      0.548820000000     0.040330000000     0.547660000000    -0.383002   
O95      O      0.564780000000     0.010600000000     0.428230000000    -0.38982    
O96      O      0.508700000000     0.080730000000     0.483290000000    -0.367314   
O97      O      0.404800000000     0.239200000000     0.133830000000    -0.387707   
O98      O      0.337290000000     0.109680000000     0.174430000000    -0.386979   
O99      O      0.366780000000     0.160580000000     0.062330000000    -0.382249   
O100     O      0.373810000000     0.185550000000     0.248000000000    -0.390862   
O101     O      0.313210000000     0.189720000000     0.243320000000    -0.392444   
O102     O      0.306510000000     0.165410000000     0.057240000000    -0.39522    
O103     O      0.275770000000     0.111880000000     0.169650000000    -0.390854   
O104     O      0.342810000000     0.240540000000     0.130760000000    -0.397453   
O105     O      0.506740000000     0.440950000000     0.996150000000    -0.391619   
O106     O      0.569390000000     0.568340000000     0.942930000000    -0.375027   
O107     O      0.548480000000     0.520600000000     0.062490000000    -0.390301   
O108     O      0.529900000000     0.489950000000     0.878620000000    -0.381468   
O109     O      0.466170000000     0.488170000000     0.881710000000    -0.384884   
O110     O      0.487280000000     0.523520000000     0.065440000000    -0.387517   
O111     O      0.507080000000     0.569280000000     0.948260000000    -0.392513   
O112     O      0.445390000000     0.442980000000     0.000300000000    -0.377942   
O113     O      0.225970000000     0.898170000000     0.269560000000    -0.389995   
O114     O      0.160700000000     0.770680000000     0.322130000000    -0.388526   
O115     O      0.178940000000     0.816720000000     0.204570000000    -0.372254   
O116     O      0.207560000000     0.850970000000     0.387650000000    -0.391556   
O117     O      0.147740000000     0.855900000000     0.396680000000    -0.369708   
O118     O      0.119530000000     0.822460000000     0.213170000000    -0.384981   
O119     O      0.100590000000     0.774680000000     0.330840000000    -0.373454   
O120     O      0.165570000000     0.901470000000     0.279780000000    -0.372527   
O121     O      0.058810000000     0.563600000000     0.440100000000    -0.389703   
O122     O      0.991270000000     0.435620000000     0.490850000000    -0.376875   
O123     O      0.020030000000     0.484120000000     0.372620000000    -0.403131   
O124     O      0.032000000000     0.512640000000     0.555770000000    -0.380733   
O125     O      0.970710000000     0.515770000000     0.553510000000    -0.387519   
O126     O      0.956910000000     0.483220000000     0.368300000000    -0.37295    
O127     O      0.928980000000     0.436590000000     0.484640000000    -0.389024   
O128     O      0.996030000000     0.563350000000     0.436430000000    -0.395689   
O129     O      0.895110000000     0.241560000000     0.627730000000    -0.383043   
O130     O      0.836700000000     0.112300000000     0.669960000000    -0.369924   
O131     O      0.853710000000     0.161420000000     0.554650000000    -0.381661   
O132     O      0.876250000000     0.190340000000     0.740960000000    -0.385319   
O133     O      0.814280000000     0.191550000000     0.746730000000    -0.391841   
O134     O      0.789250000000     0.156900000000     0.564480000000    -0.377111   
O135     O      0.773770000000     0.110480000000     0.681470000000    -0.392993   
O136     O      0.830260000000     0.237210000000     0.627700000000    -0.383518   
O137     O      0.668790000000     0.769180000000     0.814960000000    -0.362409   
O138     O      0.734650000000     0.900510000000     0.784350000000    -0.379852   
O139     O      0.702380000000     0.843670000000     0.894120000000    -0.377711   
O140     O      0.701390000000     0.825710000000     0.707330000000    -0.374035   
O141     O      0.635760000000     0.819040000000     0.701810000000    -0.391577   
O142     O      0.643900000000     0.851390000000     0.885980000000    -0.391563   
O143     O      0.671630000000     0.898730000000     0.770500000000    -0.393905   
O144     O      0.607220000000     0.771350000000     0.818920000000    -0.393537   


