data_structure

_audit_creation_method RASPA-1.0
_audit_creation_date 2023-5-19
_audit_author_name 'Poobodin Mano'

_cell_length_a    43.2921
_cell_length_b    43.2963
_cell_length_c    43.2936
_cell_angle_alpha 90
_cell_angle_beta  90
_cell_angle_gamma 90
_cell_volume      81149

_symmetry_cell_setting          triclinic
_symmetry_space_group_name_Hall 'P 1'
_symmetry_space_group_name_H-M  'P 1'
_symmetry_Int_Tables_number     1

_symmetry_equiv_pos_as_xyz 'x,y,z'

loop_
_atom_site_label
_atom_site_type_symbol
_atom_site_fract_x
_atom_site_fract_y
_atom_site_fract_z
_atom_site_charge
C1       C      0.496250000000     0.057550000000     0.247650000000     0.401599   
C2       C      0.996490000000     0.434620000000     0.247340000000     0.402204   
C3       C      0.435030000000     0.995720000000     0.247950000000     0.401792   
C4       C      0.057990000000     0.496230000000     0.246820000000     0.402357   
C5       C      0.995980000000     0.184900000000     0.247340000000     0.400608   
C6       C      0.996020000000     0.307390000000     0.248380000000     0.401541   
C7       C      0.997220000000     0.246330000000     0.186600000000     0.393415   
C8       C      0.994790000000     0.246120000000     0.309280000000     0.393263   
C9       C      0.308010000000     0.994480000000     0.247390000000     0.401677   
C10      C      0.185310000000     0.995950000000     0.246200000000     0.398463   
C11      C      0.246180000000     0.993290000000     0.185510000000     0.397352   
C12      C      0.247100000000     0.996780000000     0.308310000000     0.393891   
C13      C      0.246330000000     0.995060000000     0.058150000000     0.392221   
C14      C      0.247930000000     0.497080000000     0.435570000000     0.406481   
C15      C      0.245860000000     0.057750000000     0.997660000000     0.389408   
C16      C      0.248220000000     0.435030000000     0.495790000000     0.398356   
C17      C      0.997870000000     0.246360000000     0.059280000000     0.398333   
C18      C      0.494210000000     0.245880000000     0.436700000000     0.401172   
C19      C      0.057310000000     0.245460000000     0.996440000000     0.3921     
C20      C      0.434740000000     0.247060000000     0.498360000000     0.403887   
C21      C      0.244670000000     0.185090000000     0.997360000000     0.396496   
C22      C      0.247620000000     0.307640000000     0.996510000000     0.39567    
C23      C      0.184680000000     0.246700000000     0.996500000000     0.38925    
C24      C      0.307360000000     0.245910000000     0.997410000000     0.389379   
C25      C      0.355120000000     0.229840000000     0.018930000000     0.0304325  
C26      C      0.354530000000     0.263480000000     0.476050000000    -0.00729104 
C27      C      0.387320000000     0.229280000000     0.018010000000     0.0366834  
C28      C      0.386950000000     0.264890000000     0.476330000000     0.10985    
C29      C      0.402710000000     0.284830000000     0.452290000000    -0.20223    
C30      C      0.136690000000     0.261820000000     0.018190000000     0.0298582  
C31      C      0.137610000000     0.230090000000     0.473880000000    -0.00772566 
C32      C      0.104520000000     0.262350000000     0.017120000000     0.036096   
C33      C      0.105160000000     0.228770000000     0.473810000000     0.112707   
C34      C      0.089340000000     0.210620000000     0.448450000000    -0.204929   
C35      C      0.226960000000     0.387200000000     0.479560000000     0.0236144  
C36      C      0.271130000000     0.387770000000     0.011490000000    -0.00146154 
C37      C      0.227870000000     0.355020000000     0.478860000000     0.0319803  
C38      C      0.271060000000     0.355310000000     0.012590000000     0.118668   
C39      C      0.296390000000     0.339290000000     0.030610000000    -0.206483   
C40      C      0.267150000000     0.105740000000     0.482070000000     0.0256827  
C41      C      0.222230000000     0.104800000000     0.012940000000     7.18481e-05
C42      C      0.265720000000     0.137880000000     0.480960000000     0.0328582  
C43      C      0.221760000000     0.137260000000     0.013680000000     0.119272   
C44      C      0.195830000000     0.153090000000     0.031010000000    -0.206432   
C45      C      0.233270000000     0.020010000000     0.356080000000     0.0299567  
C46      C      0.263040000000     0.474320000000     0.355490000000    -0.00673456 
C47      C      0.232320000000     0.018860000000     0.388310000000     0.0370062  
C48      C      0.264100000000     0.474180000000     0.387880000000     0.112827   
C49      C      0.281130000000     0.448100000000     0.403800000000    -0.203945   
C50      C      0.267050000000     0.010910000000     0.106210000000     0.0297175  
C51      C      0.224870000000     0.476410000000     0.105060000000    -0.00535096 
C52      C      0.266000000000     0.011130000000     0.138350000000     0.0362396  
C53      C      0.225130000000     0.474620000000     0.137530000000     0.111339   
C54      C      0.201560000000     0.454100000000     0.153200000000    -0.204049   
C55      C      0.015280000000     0.262840000000     0.357230000000     0.0264465  
C56      C      0.472240000000     0.229440000000     0.356320000000    -0.00672541 
C57      C      0.013950000000     0.263690000000     0.389390000000     0.0326142  
C58      C      0.472070000000     0.228340000000     0.388780000000     0.109845   
C59      C      0.447740000000     0.208700000000     0.404450000000    -0.203044   
C60      C      0.976250000000     0.262560000000     0.138680000000     0.0240285  
C61      C      0.020380000000     0.230570000000     0.139500000000    -0.00419974 
C62      C      0.977570000000     0.263580000000     0.106530000000     0.0317098  
C63      C      0.020700000000     0.229760000000     0.107040000000     0.116216   
C64      C      0.046100000000     0.211750000000     0.091140000000    -0.205394   
C65      C      0.105840000000     0.480300000000     0.268150000000     0.0265314  
C66      C      0.105100000000     0.012210000000     0.223970000000    -0.000217643
C67      C      0.138000000000     0.479180000000     0.266790000000     0.032435   
C68      C      0.137560000000     0.013180000000     0.223800000000     0.11578    
C69      C      0.153430000000     0.031830000000     0.198840000000    -0.205129   
C70      C      0.387270000000     0.007050000000     0.223710000000     0.0309889  
C71      C      0.387780000000     0.483120000000     0.272760000000    -0.00461512 
C72      C      0.355090000000     0.007720000000     0.224360000000     0.03888    
C73      C      0.355330000000     0.481480000000     0.272490000000     0.114289   
C74      C      0.338830000000     0.467150000000     0.299760000000    -0.206707   
C75      C      0.010800000000     0.386630000000     0.224960000000     0.0301238  
C76      C      0.481350000000     0.387640000000     0.270840000000    -0.00488702 
C77      C      0.011880000000     0.354440000000     0.226450000000     0.0363648  
C78      C      0.480450000000     0.355240000000     0.271360000000     0.113674   
C79      C      0.463710000000     0.339490000000     0.297730000000    -0.204255   
C80      C      0.510560000000     0.105440000000     0.270300000000     0.0260598  
C81      C      0.981440000000     0.104720000000     0.224220000000    -0.00579564 
C82      C      0.511660000000     0.137640000000     0.269040000000     0.0326726  
C83      C      0.980640000000     0.137140000000     0.223860000000     0.112806   
C84      C      0.964260000000     0.153020000000     0.197330000000    -0.204121   
C85      C      0.496250000000     0.057550000000     0.747650000000     0.401622   
C86      C      0.996490000000     0.434620000000     0.747340000000     0.402452   
C87      C      0.435030000000     0.995720000000     0.747950000000     0.401816   
C88      C      0.057990000000     0.496230000000     0.746820000000     0.40238    
C89      C      0.995980000000     0.184900000000     0.747340000000     0.400602   
C90      C      0.996020000000     0.307390000000     0.748380000000     0.401528   
C91      C      0.997220000000     0.246330000000     0.686600000000     0.393377   
C92      C      0.994790000000     0.246120000000     0.809280000000     0.393265   
C93      C      0.308010000000     0.994480000000     0.747390000000     0.401667   
C94      C      0.185310000000     0.995950000000     0.746200000000     0.398454   
C95      C      0.246180000000     0.993290000000     0.685510000000     0.397307   
C96      C      0.247100000000     0.996780000000     0.808310000000     0.393885   
C97      C      0.246330000000     0.995060000000     0.558150000000     0.393617   
C98      C      0.247930000000     0.497080000000     0.935560000000     0.405702   
C99      C      0.245860000000     0.057750000000     0.497660000000     0.400213   
C100     C      0.248220000000     0.435030000000     0.995790000000     0.387557   
C101     C      0.997870000000     0.246360000000     0.559280000000     0.399956   
C102     C      0.494210000000     0.245880000000     0.936700000000     0.400502   
C103     C      0.057310000000     0.245460000000     0.496440000000     0.403007   
C104     C      0.434740000000     0.247060000000     0.998360000000     0.39305    
C105     C      0.244670000000     0.185090000000     0.497360000000     0.406173   
C106     C      0.247620000000     0.307640000000     0.496510000000     0.405324   
C107     C      0.184680000000     0.246700000000     0.496500000000     0.398911   
C108     C      0.307360000000     0.245910000000     0.497410000000     0.399051   
C109     C      0.355120000000     0.229840000000     0.518930000000     0.0246863  
C110     C      0.354530000000     0.263480000000     0.976050000000    -0.0087629  
C111     C      0.387320000000     0.229280000000     0.518000000000     0.0310785  
C112     C      0.386950000000     0.264890000000     0.976330000000     0.108385   
C113     C      0.402710000000     0.284830000000     0.952290000000    -0.201679   
C114     C      0.136690000000     0.261820000000     0.518190000000     0.0241937  
C115     C      0.137610000000     0.230090000000     0.973880000000    -0.00917603 
C116     C      0.104520000000     0.262350000000     0.517120000000     0.0305109  
C117     C      0.105160000000     0.228770000000     0.973810000000     0.111193   
C118     C      0.089340000000     0.210620000000     0.948450000000    -0.204356   
C119     C      0.226960000000     0.387200000000     0.979560000000     0.0221087  
C120     C      0.271130000000     0.387770000000     0.511490000000    -0.00702375 
C121     C      0.227870000000     0.355020000000     0.978860000000     0.0305576  
C122     C      0.271060000000     0.355310000000     0.512590000000     0.112815   
C123     C      0.296390000000     0.339290000000     0.530610000000    -0.204364   
C124     C      0.267150000000     0.105740000000     0.982080000000     0.0242133  
C125     C      0.222230000000     0.104800000000     0.512940000000    -0.00545765 
C126     C      0.265720000000     0.137880000000     0.980960000000     0.0313645  
C127     C      0.221760000000     0.137260000000     0.513680000000     0.113491   
C128     C      0.195830000000     0.153090000000     0.531010000000    -0.204423   
C129     C      0.233270000000     0.020010000000     0.856080000000     0.0298829  
C130     C      0.263040000000     0.474320000000     0.855490000000    -0.00672649 
C131     C      0.232320000000     0.018860000000     0.888310000000     0.0368761  
C132     C      0.264100000000     0.474180000000     0.887880000000     0.112617   
C133     C      0.281130000000     0.448100000000     0.903800000000    -0.203758   
C134     C      0.267050000000     0.010910000000     0.606210000000     0.0295918  
C135     C      0.224870000000     0.476410000000     0.605060000000    -0.00543594 
C136     C      0.266000000000     0.011130000000     0.638350000000     0.0360061  
C137     C      0.225130000000     0.474620000000     0.637530000000     0.111024   
C138     C      0.201560000000     0.454100000000     0.653200000000    -0.203852   
C139     C      0.015280000000     0.262840000000     0.857230000000     0.0263985  
C140     C      0.472240000000     0.229440000000     0.856320000000    -0.00670107 
C141     C      0.013950000000     0.263690000000     0.889390000000     0.0325114  
C142     C      0.472070000000     0.228340000000     0.888780000000     0.109665   
C143     C      0.447740000000     0.208700000000     0.904440000000    -0.202773   
C144     C      0.976250000000     0.262560000000     0.638680000000     0.0238221  
C145     C      0.020380000000     0.230570000000     0.639500000000    -0.00420348 
C146     C      0.977570000000     0.263580000000     0.606530000000     0.0315414  
C147     C      0.020700000000     0.229760000000     0.607040000000     0.115799   
C148     C      0.046100000000     0.211750000000     0.591140000000    -0.204805   
C149     C      0.105840000000     0.480300000000     0.768150000000     0.026488   
C150     C      0.105100000000     0.012210000000     0.723970000000    -0.000221358
C151     C      0.138000000000     0.479180000000     0.766790000000     0.032383   
C152     C      0.137560000000     0.013180000000     0.723800000000     0.115652   
C153     C      0.153430000000     0.031830000000     0.698840000000    -0.204909   
C154     C      0.387270000000     0.007050000000     0.723710000000     0.0309371  
C155     C      0.387780000000     0.483120000000     0.772760000000    -0.00462781 
C156     C      0.355090000000     0.007720000000     0.724360000000     0.0388132  
C157     C      0.355330000000     0.481480000000     0.772490000000     0.114212   
C158     C      0.338830000000     0.467150000000     0.799760000000    -0.206618   
C159     C      0.010800000000     0.386630000000     0.724950000000     0.0299808  
C160     C      0.481350000000     0.387640000000     0.770840000000    -0.00490346 
C161     C      0.011880000000     0.354440000000     0.726450000000     0.0363438  
C162     C      0.480450000000     0.355240000000     0.771360000000     0.113593   
C163     C      0.463710000000     0.339490000000     0.797730000000    -0.204168   
C164     C      0.510560000000     0.105440000000     0.770300000000     0.0260305  
C165     C      0.981440000000     0.104720000000     0.724220000000    -0.00580132 
C166     C      0.511660000000     0.137640000000     0.769040000000     0.0326269  
C167     C      0.980640000000     0.137140000000     0.723850000000     0.112694   
C168     C      0.964260000000     0.153020000000     0.697340000000    -0.203933   
C169     C      0.496250000000     0.557550000000     0.247650000000     0.402183   
C170     C      0.996490000000     0.934620000000     0.247340000000     0.401893   
C171     C      0.435030000000     0.495720000000     0.247950000000     0.402535   
C172     C      0.057990000000     0.996230000000     0.246820000000     0.401629   
C173     C      0.995980000000     0.684900000000     0.247340000000     0.400585   
C174     C      0.996020000000     0.807390000000     0.248380000000     0.401508   
C175     C      0.997220000000     0.746330000000     0.186600000000     0.393402   
C176     C      0.994790000000     0.746120000000     0.309280000000     0.393249   
C177     C      0.308010000000     0.494480000000     0.247390000000     0.408446   
C178     C      0.185310000000     0.495950000000     0.246200000000     0.405275   
C179     C      0.246180000000     0.493290000000     0.185510000000     0.404248   
C180     C      0.247100000000     0.496780000000     0.308310000000     0.400497   
C181     C      0.246330000000     0.495060000000     0.058150000000     0.399903   
C182     C      0.247930000000     0.997080000000     0.435570000000     0.398745   
C183     C      0.245860000000     0.557750000000     0.997660000000     0.390469   
C184     C      0.248220000000     0.935030000000     0.495790000000     0.39786    
C185     C      0.997870000000     0.746360000000     0.059280000000     0.398336   
C186     C      0.494210000000     0.745880000000     0.436700000000     0.401195   
C187     C      0.057310000000     0.745460000000     0.996440000000     0.39212    
C188     C      0.434740000000     0.747060000000     0.498360000000     0.403902   
C189     C      0.244670000000     0.685090000000     0.997360000000     0.396475   
C190     C      0.247620000000     0.807640000000     0.996510000000     0.395643   
C191     C      0.184680000000     0.746700000000     0.996500000000     0.389246   
C192     C      0.307360000000     0.745910000000     0.997410000000     0.389403   
C193     C      0.355120000000     0.729840000000     0.018930000000     0.0303655  
C194     C      0.354530000000     0.763480000000     0.476050000000    -0.00730086 
C195     C      0.387320000000     0.729280000000     0.018010000000     0.0366817  
C196     C      0.386950000000     0.764890000000     0.476330000000     0.109768   
C197     C      0.402710000000     0.784830000000     0.452290000000    -0.202277   
C198     C      0.136690000000     0.761820000000     0.018190000000     0.0297998  
C199     C      0.137610000000     0.730090000000     0.473880000000    -0.00774375 
C200     C      0.104520000000     0.762340000000     0.017120000000     0.036128   
C201     C      0.105160000000     0.728780000000     0.473810000000     0.112622   
C202     C      0.089340000000     0.710620000000     0.448450000000    -0.204797   
C203     C      0.226960000000     0.887200000000     0.479560000000     0.0235526  
C204     C      0.271130000000     0.887770000000     0.011490000000    -0.00150519 
C205     C      0.227870000000     0.855020000000     0.478860000000     0.0319354  
C206     C      0.271060000000     0.855310000000     0.012590000000     0.118582   
C207     C      0.296390000000     0.839290000000     0.030610000000    -0.206401   
C208     C      0.267150000000     0.605740000000     0.482070000000     0.0255634  
C209     C      0.222230000000     0.604800000000     0.012940000000     1.52639e-05
C210     C      0.265720000000     0.637880000000     0.480960000000     0.0326682  
C211     C      0.221760000000     0.637260000000     0.013680000000     0.119044   
C212     C      0.195830000000     0.653090000000     0.031010000000    -0.206291   
C213     C      0.233270000000     0.520010000000     0.356080000000     0.0256686  
C214     C      0.263040000000     0.974330000000     0.355490000000    -0.00752265 
C215     C      0.232320000000     0.518850000000     0.388310000000     0.0330534  
C216     C      0.264100000000     0.974180000000     0.387880000000     0.111884   
C217     C      0.281130000000     0.948100000000     0.403800000000    -0.203586   
C218     C      0.267050000000     0.510910000000     0.106210000000     0.0257098  
C219     C      0.224870000000     0.976410000000     0.105060000000    -0.00632951 
C220     C      0.266000000000     0.511130000000     0.138350000000     0.0321788  
C221     C      0.225130000000     0.974620000000     0.137530000000     0.110096   
C222     C      0.201560000000     0.954100000000     0.153200000000    -0.203502   
C223     C      0.015280000000     0.762850000000     0.357230000000     0.0263501  
C224     C      0.472240000000     0.729440000000     0.356320000000    -0.00673546 
C225     C      0.013950000000     0.763690000000     0.389390000000     0.0326249  
C226     C      0.472070000000     0.728340000000     0.388780000000     0.10973    
C227     C      0.447740000000     0.708700000000     0.404450000000    -0.202911   
C228     C      0.976250000000     0.762560000000     0.138680000000     0.0239955  
C229     C      0.020380000000     0.730570000000     0.139500000000    -0.00419915 
C230     C      0.977570000000     0.763580000000     0.106530000000     0.0316607  
C231     C      0.020700000000     0.729760000000     0.107040000000     0.116122   
C232     C      0.046100000000     0.711750000000     0.091140000000    -0.205291   
C233     C      0.105840000000     0.980300000000     0.268150000000     0.025746   
C234     C      0.105100000000     0.512210000000     0.223970000000    -0.00475504 
C235     C      0.138000000000     0.979180000000     0.266790000000     0.0313492  
C236     C      0.137560000000     0.513180000000     0.223800000000     0.111729   
C237     C      0.153430000000     0.531830000000     0.198840000000    -0.203721   
C238     C      0.387270000000     0.507050000000     0.223710000000     0.0263077  
C239     C      0.387780000000     0.983120000000     0.272760000000    -0.00530988 
C240     C      0.355090000000     0.507720000000     0.224360000000     0.0348764  
C241     C      0.355330000000     0.981480000000     0.272490000000     0.113107   
C242     C      0.338830000000     0.967150000000     0.299760000000    -0.206224   
C243     C      0.010800000000     0.886630000000     0.224960000000     0.0300386  
C244     C      0.481350000000     0.887640000000     0.270840000000    -0.00494825 
C245     C      0.011880000000     0.854440000000     0.226450000000     0.0363126  
C246     C      0.480450000000     0.855240000000     0.271360000000     0.113608   
C247     C      0.463710000000     0.839490000000     0.297730000000    -0.204202   
C248     C      0.510560000000     0.605440000000     0.270300000000     0.0258196  
C249     C      0.981440000000     0.604720000000     0.224220000000    -0.00597589 
C250     C      0.511660000000     0.637640000000     0.269040000000     0.0324829  
C251     C      0.980640000000     0.637140000000     0.223860000000     0.11257    
C252     C      0.964260000000     0.653020000000     0.197330000000    -0.203984   
C253     C      0.496250000000     0.557550000000     0.747650000000     0.402207   
C254     C      0.996490000000     0.934620000000     0.747340000000     0.402141   
C255     C      0.435030000000     0.495720000000     0.747950000000     0.402559   
C256     C      0.057990000000     0.996230000000     0.746820000000     0.401651   
C257     C      0.995980000000     0.684900000000     0.747340000000     0.400579   
C258     C      0.996020000000     0.807390000000     0.748380000000     0.401495   
C259     C      0.997220000000     0.746330000000     0.686600000000     0.393363   
C260     C      0.994790000000     0.746120000000     0.809280000000     0.393251   
C261     C      0.308010000000     0.494480000000     0.747390000000     0.408443   
C262     C      0.185310000000     0.495950000000     0.746200000000     0.405273   
C263     C      0.246180000000     0.493290000000     0.685510000000     0.404215   
C264     C      0.247100000000     0.496780000000     0.808310000000     0.400493   
C265     C      0.246330000000     0.495060000000     0.558150000000     0.401332   
C266     C      0.247930000000     0.997080000000     0.935560000000     0.397979   
C267     C      0.245860000000     0.557750000000     0.497660000000     0.401312   
C268     C      0.248220000000     0.935030000000     0.995790000000     0.387077   
C269     C      0.997870000000     0.746360000000     0.559280000000     0.399961   
C270     C      0.494210000000     0.745880000000     0.936700000000     0.400525   
C271     C      0.057310000000     0.745460000000     0.496440000000     0.403034   
C272     C      0.434740000000     0.747060000000     0.998360000000     0.393054   
C273     C      0.244670000000     0.685090000000     0.497360000000     0.406165   
C274     C      0.247620000000     0.807640000000     0.496510000000     0.405299   
C275     C      0.184680000000     0.746700000000     0.496500000000     0.398914   
C276     C      0.307360000000     0.745910000000     0.497410000000     0.399084   
C277     C      0.355120000000     0.729840000000     0.518930000000     0.0246137  
C278     C      0.354530000000     0.763480000000     0.976050000000    -0.00877347 
C279     C      0.387320000000     0.729280000000     0.518000000000     0.0310688  
C280     C      0.386950000000     0.764890000000     0.976330000000     0.108302   
C281     C      0.402710000000     0.784830000000     0.952290000000    -0.201725   
C282     C      0.136690000000     0.761820000000     0.518190000000     0.0241308  
C283     C      0.137610000000     0.730090000000     0.973880000000    -0.00919566 
C284     C      0.104520000000     0.762340000000     0.517120000000     0.0305356  
C285     C      0.105160000000     0.728780000000     0.973810000000     0.111106   
C286     C      0.089340000000     0.710620000000     0.948450000000    -0.204224   
C287     C      0.226960000000     0.887200000000     0.979560000000     0.0220484  
C288     C      0.271130000000     0.887770000000     0.511490000000    -0.00706359 
C289     C      0.227870000000     0.855020000000     0.978860000000     0.0305135  
C290     C      0.271060000000     0.855310000000     0.512590000000     0.112727   
C291     C      0.296390000000     0.839290000000     0.530610000000    -0.204281   
C292     C      0.267150000000     0.605740000000     0.982080000000     0.0240909  
C293     C      0.222230000000     0.604800000000     0.512940000000    -0.00553161 
C294     C      0.265720000000     0.637880000000     0.980960000000     0.0311721  
C295     C      0.221760000000     0.637260000000     0.513680000000     0.113251   
C296     C      0.195830000000     0.653090000000     0.531010000000    -0.204278   
C297     C      0.233270000000     0.520010000000     0.856080000000     0.0255923  
C298     C      0.263040000000     0.974330000000     0.855490000000    -0.00751407 
C299     C      0.232320000000     0.518850000000     0.888310000000     0.0329243  
C300     C      0.264100000000     0.974180000000     0.887880000000     0.111675   
C301     C      0.281130000000     0.948100000000     0.903800000000    -0.2034     
C302     C      0.267050000000     0.510910000000     0.606210000000     0.0255666  
C303     C      0.224870000000     0.976410000000     0.605060000000    -0.00641502 
C304     C      0.266000000000     0.511130000000     0.638350000000     0.031935   
C305     C      0.225130000000     0.974620000000     0.637530000000     0.109779   
C306     C      0.201560000000     0.954100000000     0.653200000000    -0.203303   
C307     C      0.015280000000     0.762850000000     0.857230000000     0.0263022  
C308     C      0.472240000000     0.729440000000     0.856320000000    -0.00671105 
C309     C      0.013950000000     0.763690000000     0.889390000000     0.0325222  
C310     C      0.472070000000     0.728340000000     0.888780000000     0.10955    
C311     C      0.447740000000     0.708700000000     0.904440000000    -0.20264    
C312     C      0.976250000000     0.762560000000     0.638680000000     0.0237888  
C313     C      0.020380000000     0.730570000000     0.639500000000    -0.00420283 
C314     C      0.977570000000     0.763580000000     0.606530000000     0.0314921  
C315     C      0.020700000000     0.729760000000     0.607040000000     0.115704   
C316     C      0.046100000000     0.711750000000     0.591140000000    -0.204702   
C317     C      0.105840000000     0.980300000000     0.768150000000     0.0257026  
C318     C      0.105100000000     0.512210000000     0.723970000000    -0.00476566 
C319     C      0.138000000000     0.979180000000     0.766790000000     0.0312967  
C320     C      0.137560000000     0.513180000000     0.723800000000     0.111594   
C321     C      0.153430000000     0.531830000000     0.698840000000    -0.203498   
C322     C      0.387270000000     0.507050000000     0.723710000000     0.0262486  
C323     C      0.387780000000     0.983120000000     0.772760000000    -0.00532283 
C324     C      0.355090000000     0.507720000000     0.724360000000     0.0348032  
C325     C      0.355330000000     0.981480000000     0.772490000000     0.11303    
C326     C      0.338830000000     0.967150000000     0.799760000000    -0.206135   
C327     C      0.010800000000     0.886630000000     0.724950000000     0.0298955  
C328     C      0.481350000000     0.887640000000     0.770840000000    -0.00496477 
C329     C      0.011880000000     0.854440000000     0.726450000000     0.0362917  
C330     C      0.480450000000     0.855240000000     0.771360000000     0.113527   
C331     C      0.463710000000     0.839490000000     0.797730000000    -0.204116   
C332     C      0.510560000000     0.605440000000     0.770300000000     0.02579    
C333     C      0.981440000000     0.604720000000     0.724220000000    -0.00598175 
C334     C      0.511660000000     0.637640000000     0.769040000000     0.032437   
C335     C      0.980640000000     0.637140000000     0.723850000000     0.112457   
C336     C      0.964260000000     0.653020000000     0.697340000000    -0.203796   
C337     C      0.996250000000     0.057550000000     0.247650000000     0.40098    
C338     C      0.496490000000     0.434620000000     0.247340000000     0.40282    
C339     C      0.935030000000     0.995720000000     0.247950000000     0.401559   
C340     C      0.557990000000     0.496230000000     0.246820000000     0.402834   
C341     C      0.495980000000     0.184900000000     0.247340000000     0.405923   
C342     C      0.496020000000     0.307390000000     0.248380000000     0.406861   
C343     C      0.497220000000     0.246330000000     0.186600000000     0.398675   
C344     C      0.494790000000     0.246120000000     0.309280000000     0.398522   
C345     C      0.808000000000     0.994480000000     0.247390000000     0.401753   
C346     C      0.685310000000     0.995950000000     0.246200000000     0.398551   
C347     C      0.746180000000     0.993290000000     0.185510000000     0.397349   
C348     C      0.747100000000     0.996780000000     0.308310000000     0.393872   
C349     C      0.746330000000     0.995060000000     0.058150000000     0.392224   
C350     C      0.747930000000     0.497080000000     0.435570000000     0.40673    
C351     C      0.745860000000     0.057750000000     0.997660000000     0.389409   
C352     C      0.748220000000     0.435030000000     0.495790000000     0.398372   
C353     C      0.497880000000     0.246360000000     0.059280000000     0.404326   
C354     C      0.994210000000     0.245880000000     0.436700000000     0.400408   
C355     C      0.557310000000     0.245460000000     0.996440000000     0.392855   
C356     C      0.934740000000     0.247060000000     0.498360000000     0.403611   
C357     C      0.744670000000     0.185090000000     0.997360000000     0.396532   
C358     C      0.747610000000     0.307640000000     0.996510000000     0.395666   
C359     C      0.684680000000     0.246700000000     0.996500000000     0.389209   
C360     C      0.807360000000     0.245910000000     0.997410000000     0.389455   
C361     C      0.855120000000     0.229840000000     0.018930000000     0.0304049  
C362     C      0.854530000000     0.263480000000     0.476050000000    -0.00727773 
C363     C      0.887320000000     0.229280000000     0.018010000000     0.0366156  
C364     C      0.886950000000     0.264890000000     0.476330000000     0.109777   
C365     C      0.902710000000     0.284830000000     0.452290000000    -0.202138   
C366     C      0.636690000000     0.261820000000     0.018190000000     0.0297539  
C367     C      0.637610000000     0.230090000000     0.473880000000    -0.00771607 
C368     C      0.604520000000     0.262350000000     0.017120000000     0.0360139  
C369     C      0.605160000000     0.228770000000     0.473810000000     0.11241    
C370     C      0.589340000000     0.210620000000     0.448450000000    -0.204552   
C371     C      0.726960000000     0.387200000000     0.479560000000     0.0235801  
C372     C      0.771130000000     0.387770000000     0.011490000000    -0.00147096 
C373     C      0.727870000000     0.355020000000     0.478860000000     0.0319241  
C374     C      0.771060000000     0.355310000000     0.012590000000     0.118642   
C375     C      0.796390000000     0.339290000000     0.030610000000    -0.206439   
C376     C      0.767150000000     0.105740000000     0.482070000000     0.0256132  
C377     C      0.722230000000     0.104800000000     0.012940000000     5.81437e-05
C378     C      0.765710000000     0.137880000000     0.480960000000     0.0329266  
C379     C      0.721760000000     0.137260000000     0.013680000000     0.119211   
C380     C      0.695830000000     0.153090000000     0.031010000000    -0.206362   
C381     C      0.733270000000     0.020010000000     0.356080000000     0.029917   
C382     C      0.763040000000     0.474320000000     0.355490000000    -0.00675687 
C383     C      0.732320000000     0.018860000000     0.388310000000     0.0369644  
C384     C      0.764100000000     0.474180000000     0.387880000000     0.112781   
C385     C      0.781130000000     0.448100000000     0.403800000000    -0.203902   
C386     C      0.767050000000     0.010910000000     0.106210000000     0.0296554  
C387     C      0.724870000000     0.476410000000     0.105060000000    -0.00537086 
C388     C      0.765990000000     0.011130000000     0.138350000000     0.0363049  
C389     C      0.725130000000     0.474620000000     0.137530000000     0.111273   
C390     C      0.701560000000     0.454100000000     0.153200000000    -0.203971   
C391     C      0.515280000000     0.262840000000     0.357230000000     0.0232884  
C392     C      0.972240000000     0.229440000000     0.356320000000    -0.00751082 
C393     C      0.513950000000     0.263690000000     0.389390000000     0.0289376  
C394     C      0.972070000000     0.228340000000     0.388780000000     0.109278   
C395     C      0.947740000000     0.208700000000     0.404450000000    -0.202957   
C396     C      0.476240000000     0.262560000000     0.138680000000     0.0246938  
C397     C      0.520380000000     0.230570000000     0.139500000000    -0.00743687 
C398     C      0.477570000000     0.263580000000     0.106530000000     0.0325777  
C399     C      0.520700000000     0.229760000000     0.107040000000     0.113141   
C400     C      0.546100000000     0.211750000000     0.091140000000    -0.204424   
C401     C      0.605840000000     0.480300000000     0.268150000000     0.0263637  
C402     C      0.605100000000     0.012210000000     0.223970000000    -0.000325906
C403     C      0.638000000000     0.479180000000     0.266790000000     0.0322696  
C404     C      0.637560000000     0.013180000000     0.223800000000     0.11558    
C405     C      0.653430000000     0.031830000000     0.198840000000    -0.205007   
C406     C      0.887270000000     0.007050000000     0.223710000000     0.0309337  
C407     C      0.887780000000     0.483120000000     0.272760000000    -0.00465456 
C408     C      0.855090000000     0.007720000000     0.224360000000     0.0388371  
C409     C      0.855330000000     0.481480000000     0.272490000000     0.114226   
C410     C      0.838830000000     0.467150000000     0.299760000000    -0.206657   
C411     C      0.510800000000     0.386630000000     0.224960000000     0.0264211  
C412     C      0.981350000000     0.387640000000     0.270840000000    -0.00538988 
C413     C      0.511880000000     0.354440000000     0.226450000000     0.0331675  
C414     C      0.980450000000     0.355240000000     0.271360000000     0.112669   
C415     C      0.963710000000     0.339490000000     0.297730000000    -0.203798   
C416     C      0.010560000000     0.105440000000     0.270300000000     0.0297658  
C417     C      0.481440000000     0.104720000000     0.224220000000    -0.00527979 
C418     C      0.011660000000     0.137640000000     0.269040000000     0.0358106  
C419     C      0.480640000000     0.137140000000     0.223860000000     0.113816   
C420     C      0.464260000000     0.153020000000     0.197330000000    -0.204704   
C421     C      0.996250000000     0.057550000000     0.747650000000     0.401004   
C422     C      0.496490000000     0.434620000000     0.747340000000     0.403068   
C423     C      0.935030000000     0.995720000000     0.747950000000     0.401582   
C424     C      0.557990000000     0.496230000000     0.746820000000     0.402857   
C425     C      0.495980000000     0.184900000000     0.747340000000     0.405921   
C426     C      0.496020000000     0.307390000000     0.748380000000     0.406852   
C427     C      0.497220000000     0.246330000000     0.686600000000     0.398642   
C428     C      0.494790000000     0.246120000000     0.809280000000     0.398524   
C429     C      0.808000000000     0.994480000000     0.747390000000     0.401742   
C430     C      0.685310000000     0.995950000000     0.746200000000     0.398542   
C431     C      0.746180000000     0.993290000000     0.685510000000     0.397305   
C432     C      0.747100000000     0.996780000000     0.808310000000     0.393865   
C433     C      0.746330000000     0.995060000000     0.558150000000     0.393621   
C434     C      0.747930000000     0.497080000000     0.935560000000     0.40595    
C435     C      0.745860000000     0.057750000000     0.497660000000     0.400222   
C436     C      0.748220000000     0.435030000000     0.995790000000     0.387571   
C437     C      0.497880000000     0.246360000000     0.559280000000     0.405974   
C438     C      0.994210000000     0.245880000000     0.936700000000     0.399743   
C439     C      0.557310000000     0.245460000000     0.496440000000     0.403797   
C440     C      0.934740000000     0.247060000000     0.998360000000     0.392793   
C441     C      0.744670000000     0.185090000000     0.497360000000     0.406215   
C442     C      0.747610000000     0.307640000000     0.496510000000     0.405324   
C443     C      0.684680000000     0.246700000000     0.496500000000     0.398879   
C444     C      0.807360000000     0.245910000000     0.497410000000     0.399127   
C445     C      0.855120000000     0.229840000000     0.518930000000     0.02466    
C446     C      0.854530000000     0.263480000000     0.976050000000    -0.00874869 
C447     C      0.887320000000     0.229280000000     0.518000000000     0.0310168  
C448     C      0.886950000000     0.264890000000     0.976330000000     0.108313   
C449     C      0.902710000000     0.284830000000     0.952290000000    -0.201588   
C450     C      0.636690000000     0.261820000000     0.518190000000     0.0240801  
C451     C      0.637610000000     0.230090000000     0.973880000000    -0.00916849 
C452     C      0.604520000000     0.262350000000     0.517120000000     0.0304137  
C453     C      0.605160000000     0.228770000000     0.973810000000     0.110892   
C454     C      0.589340000000     0.210620000000     0.948450000000    -0.203978   
C455     C      0.726960000000     0.387200000000     0.979560000000     0.0220737  
C456     C      0.771130000000     0.387770000000     0.511490000000    -0.00703696 
C457     C      0.727870000000     0.355020000000     0.978860000000     0.030501   
C458     C      0.771060000000     0.355310000000     0.512590000000     0.112786   
C459     C      0.796390000000     0.339290000000     0.530610000000    -0.204319   
C460     C      0.767150000000     0.105740000000     0.982080000000     0.0241434  
C461     C      0.722230000000     0.104800000000     0.512940000000    -0.00547498 
C462     C      0.765710000000     0.137880000000     0.980960000000     0.031433   
C463     C      0.721760000000     0.137260000000     0.513680000000     0.113424   
C464     C      0.695830000000     0.153090000000     0.531010000000    -0.204351   
C465     C      0.733270000000     0.020010000000     0.856080000000     0.0298431  
C466     C      0.763040000000     0.474320000000     0.855490000000    -0.00674882 
C467     C      0.732320000000     0.018860000000     0.888310000000     0.0368343  
C468     C      0.764100000000     0.474180000000     0.887880000000     0.11257    
C469     C      0.781130000000     0.448100000000     0.903800000000    -0.203715   
C470     C      0.767050000000     0.010910000000     0.606210000000     0.0295297  
C471     C      0.724870000000     0.476410000000     0.605060000000    -0.00545591 
C472     C      0.765990000000     0.011130000000     0.638350000000     0.0360713  
C473     C      0.725130000000     0.474620000000     0.637530000000     0.110958   
C474     C      0.701560000000     0.454100000000     0.653200000000    -0.203773   
C475     C      0.515280000000     0.262840000000     0.857230000000     0.023239   
C476     C      0.972240000000     0.229440000000     0.856320000000    -0.00748584 
C477     C      0.513950000000     0.263690000000     0.889390000000     0.0288367  
C478     C      0.972070000000     0.228340000000     0.888780000000     0.109099   
C479     C      0.947740000000     0.208700000000     0.904440000000    -0.202687   
C480     C      0.476240000000     0.262560000000     0.638680000000     0.0244881  
C481     C      0.520380000000     0.230570000000     0.639500000000    -0.00744762 
C482     C      0.477570000000     0.263580000000     0.606530000000     0.0324107  
C483     C      0.520700000000     0.229760000000     0.607040000000     0.112712   
C484     C      0.546100000000     0.211750000000     0.591140000000    -0.203831   
C485     C      0.605840000000     0.480300000000     0.768150000000     0.02632    
C486     C      0.605100000000     0.012210000000     0.723970000000    -0.000329817
C487     C      0.638000000000     0.479180000000     0.766790000000     0.0322174  
C488     C      0.637560000000     0.013180000000     0.723800000000     0.115452   
C489     C      0.653430000000     0.031830000000     0.698840000000    -0.204786   
C490     C      0.887270000000     0.007050000000     0.723710000000     0.0308819  
C491     C      0.887780000000     0.483120000000     0.772760000000    -0.00466727 
C492     C      0.855090000000     0.007720000000     0.724360000000     0.0387703  
C493     C      0.855330000000     0.481480000000     0.772490000000     0.11415    
C494     C      0.838830000000     0.467150000000     0.799760000000    -0.206568   
C495     C      0.510800000000     0.386630000000     0.724950000000     0.0262744  
C496     C      0.981350000000     0.387640000000     0.770840000000    -0.00540631 
C497     C      0.511880000000     0.354440000000     0.726450000000     0.0331413  
C498     C      0.980450000000     0.355240000000     0.771360000000     0.112589   
C499     C      0.963710000000     0.339490000000     0.797730000000    -0.203711   
C500     C      0.010560000000     0.105440000000     0.770300000000     0.029741   
C501     C      0.481440000000     0.104720000000     0.724220000000    -0.00528571 
C502     C      0.011660000000     0.137640000000     0.769040000000     0.035769   
C503     C      0.480640000000     0.137140000000     0.723850000000     0.113705   
C504     C      0.464260000000     0.153020000000     0.697340000000    -0.204516   
C505     C      0.996250000000     0.557550000000     0.247650000000     0.401562   
C506     C      0.496490000000     0.934620000000     0.247340000000     0.402508   
C507     C      0.935030000000     0.495720000000     0.247950000000     0.4023     
C508     C      0.557990000000     0.996230000000     0.246820000000     0.402104   
C509     C      0.495980000000     0.684900000000     0.247340000000     0.40591    
C510     C      0.496020000000     0.807390000000     0.248380000000     0.406832   
C511     C      0.497220000000     0.746330000000     0.186600000000     0.398668   
C512     C      0.494790000000     0.746120000000     0.309280000000     0.398515   
C513     C      0.808000000000     0.494480000000     0.247390000000     0.408529   
C514     C      0.685310000000     0.495950000000     0.246200000000     0.405374   
C515     C      0.746180000000     0.493290000000     0.185510000000     0.404253   
C516     C      0.747100000000     0.496780000000     0.308310000000     0.400485   
C517     C      0.746330000000     0.495060000000     0.058150000000     0.399914   
C518     C      0.747930000000     0.997080000000     0.435570000000     0.398982   
C519     C      0.745860000000     0.557750000000     0.997660000000     0.390472   
C520     C      0.748220000000     0.935030000000     0.495790000000     0.397876   
C521     C      0.497880000000     0.746360000000     0.059280000000     0.404339   
C522     C      0.994210000000     0.745880000000     0.436700000000     0.400431   
C523     C      0.557310000000     0.745460000000     0.996440000000     0.392876   
C524     C      0.934740000000     0.747060000000     0.498360000000     0.403626   
C525     C      0.744670000000     0.685090000000     0.997360000000     0.396511   
C526     C      0.747610000000     0.807640000000     0.996510000000     0.395639   
C527     C      0.684680000000     0.746700000000     0.996500000000     0.389205   
C528     C      0.807360000000     0.745910000000     0.997410000000     0.389479   
C529     C      0.855120000000     0.729840000000     0.018930000000     0.0303379  
C530     C      0.854530000000     0.763480000000     0.476050000000    -0.00728757 
C531     C      0.887320000000     0.729280000000     0.018010000000     0.0366137  
C532     C      0.886950000000     0.764890000000     0.476330000000     0.109695   
C533     C      0.902710000000     0.784830000000     0.452290000000    -0.202185   
C534     C      0.636690000000     0.761820000000     0.018190000000     0.0296953  
C535     C      0.637610000000     0.730090000000     0.473880000000    -0.00773414 
C536     C      0.604520000000     0.762340000000     0.017120000000     0.0360458  
C537     C      0.605160000000     0.728780000000     0.473810000000     0.112323   
C538     C      0.589340000000     0.710620000000     0.448450000000    -0.204419   
C539     C      0.726960000000     0.887200000000     0.479560000000     0.0235183  
C540     C      0.771130000000     0.887770000000     0.011490000000    -0.00151466 
C541     C      0.727870000000     0.855020000000     0.478860000000     0.0318791  
C542     C      0.771060000000     0.855310000000     0.012590000000     0.118556   
C543     C      0.796390000000     0.839290000000     0.030610000000    -0.206356   
C544     C      0.767150000000     0.605740000000     0.482070000000     0.0254938  
C545     C      0.722230000000     0.604800000000     0.012940000000     1.46203e-06
C546     C      0.765710000000     0.637880000000     0.480960000000     0.0327364  
C547     C      0.721760000000     0.637260000000     0.013680000000     0.118982   
C548     C      0.695830000000     0.653090000000     0.031010000000    -0.206221   
C549     C      0.733270000000     0.520010000000     0.356080000000     0.0256232  
C550     C      0.763040000000     0.974330000000     0.355490000000    -0.00754562 
C551     C      0.732320000000     0.518850000000     0.388310000000     0.033006   
C552     C      0.764100000000     0.974180000000     0.387880000000     0.111837   
C553     C      0.781130000000     0.948100000000     0.403800000000    -0.203543   
C554     C      0.767050000000     0.510910000000     0.106210000000     0.025643   
C555     C      0.724870000000     0.976410000000     0.105060000000    -0.00635044 
C556     C      0.765990000000     0.511130000000     0.138350000000     0.0322373  
C557     C      0.725130000000     0.974620000000     0.137530000000     0.110029   
C558     C      0.701560000000     0.954100000000     0.153200000000    -0.203423   
C559     C      0.515280000000     0.762850000000     0.357230000000     0.0231873  
C560     C      0.972240000000     0.729440000000     0.356320000000    -0.00752186 
C561     C      0.513950000000     0.763690000000     0.389390000000     0.0289418  
C562     C      0.972070000000     0.728340000000     0.388780000000     0.109163   
C563     C      0.947740000000     0.708700000000     0.404450000000    -0.202824   
C564     C      0.476240000000     0.762560000000     0.138680000000     0.0246613  
C565     C      0.520380000000     0.730570000000     0.139500000000    -0.00744192 
C566     C      0.477570000000     0.763580000000     0.106530000000     0.0325292  
C567     C      0.520700000000     0.729760000000     0.107040000000     0.113041   
C568     C      0.546100000000     0.711750000000     0.091140000000    -0.20432    
C569     C      0.605840000000     0.980300000000     0.268150000000     0.0255776  
C570     C      0.605100000000     0.512210000000     0.223970000000    -0.00487984 
C571     C      0.638000000000     0.979180000000     0.266790000000     0.0311798  
C572     C      0.637560000000     0.513180000000     0.223800000000     0.111521   
C573     C      0.653430000000     0.531830000000     0.198840000000    -0.203596   
C574     C      0.887270000000     0.507050000000     0.223710000000     0.0262538  
C575     C      0.887780000000     0.983120000000     0.272760000000    -0.00534898 
C576     C      0.855090000000     0.507720000000     0.224360000000     0.0348309  
C577     C      0.855330000000     0.981480000000     0.272490000000     0.113044   
C578     C      0.838830000000     0.967150000000     0.299760000000    -0.206174   
C579     C      0.510800000000     0.886630000000     0.224960000000     0.0263354  
C580     C      0.981350000000     0.887640000000     0.270840000000    -0.00545079 
C581     C      0.511880000000     0.854440000000     0.226450000000     0.0331121  
C582     C      0.980450000000     0.855240000000     0.271360000000     0.112603   
C583     C      0.963710000000     0.839490000000     0.297730000000    -0.203745   
C584     C      0.010560000000     0.605440000000     0.270300000000     0.0295407  
C585     C      0.481440000000     0.604720000000     0.224220000000    -0.00545919 
C586     C      0.011660000000     0.637640000000     0.269040000000     0.0356295  
C587     C      0.480640000000     0.637140000000     0.223860000000     0.113582   
C588     C      0.464260000000     0.653020000000     0.197330000000    -0.204568   
C589     C      0.996250000000     0.557550000000     0.747650000000     0.401586   
C590     C      0.496490000000     0.934620000000     0.747340000000     0.402755   
C591     C      0.935030000000     0.495720000000     0.747950000000     0.402324   
C592     C      0.557990000000     0.996230000000     0.746820000000     0.402126   
C593     C      0.495980000000     0.684900000000     0.747340000000     0.405908   
C594     C      0.496020000000     0.807390000000     0.748380000000     0.406822   
C595     C      0.497220000000     0.746330000000     0.686600000000     0.398635   
C596     C      0.494790000000     0.746120000000     0.809280000000     0.398517   
C597     C      0.808000000000     0.494480000000     0.747390000000     0.408525   
C598     C      0.685310000000     0.495950000000     0.746200000000     0.405372   
C599     C      0.746180000000     0.493290000000     0.685510000000     0.404219   
C600     C      0.747100000000     0.496780000000     0.808310000000     0.400481   
C601     C      0.746330000000     0.495060000000     0.558150000000     0.401343   
C602     C      0.747930000000     0.997080000000     0.935560000000     0.398215   
C603     C      0.745860000000     0.557750000000     0.497660000000     0.401324   
C604     C      0.748220000000     0.935030000000     0.995790000000     0.38709    
C605     C      0.497880000000     0.746360000000     0.559280000000     0.405989   
C606     C      0.994210000000     0.745880000000     0.936700000000     0.399765   
C607     C      0.557310000000     0.745460000000     0.496440000000     0.403825   
C608     C      0.934740000000     0.747060000000     0.998360000000     0.392798   
C609     C      0.744670000000     0.685090000000     0.497360000000     0.406207   
C610     C      0.747610000000     0.807640000000     0.496510000000     0.405298   
C611     C      0.684680000000     0.746700000000     0.496500000000     0.398882   
C612     C      0.807360000000     0.745910000000     0.497410000000     0.39916    
C613     C      0.855120000000     0.729840000000     0.518930000000     0.0245873  
C614     C      0.854530000000     0.763480000000     0.976050000000    -0.00875927 
C615     C      0.887320000000     0.729280000000     0.518000000000     0.0310071  
C616     C      0.886950000000     0.764890000000     0.976330000000     0.108231   
C617     C      0.902710000000     0.784830000000     0.952290000000    -0.201634   
C618     C      0.636690000000     0.761820000000     0.518190000000     0.024017   
C619     C      0.637610000000     0.730090000000     0.973880000000    -0.00918811 
C620     C      0.604520000000     0.762340000000     0.517120000000     0.0304383  
C621     C      0.605160000000     0.728780000000     0.973810000000     0.110805   
C622     C      0.589340000000     0.710620000000     0.948450000000    -0.203845   
C623     C      0.726960000000     0.887200000000     0.979560000000     0.0220134  
C624     C      0.771130000000     0.887770000000     0.511490000000    -0.00707685 
C625     C      0.727870000000     0.855020000000     0.978860000000     0.0304569  
C626     C      0.771060000000     0.855310000000     0.512590000000     0.112698   
C627     C      0.796390000000     0.839290000000     0.530610000000    -0.204236   
C628     C      0.767150000000     0.605740000000     0.982080000000     0.0240207  
C629     C      0.722230000000     0.604800000000     0.512940000000    -0.00554904 
C630     C      0.765710000000     0.637880000000     0.980960000000     0.0312404  
C631     C      0.721760000000     0.637260000000     0.513680000000     0.113183   
C632     C      0.695830000000     0.653090000000     0.531010000000    -0.204205   
C633     C      0.733270000000     0.520010000000     0.856080000000     0.0255469  
C634     C      0.763040000000     0.974330000000     0.855490000000    -0.00753706 
C635     C      0.732320000000     0.518850000000     0.888310000000     0.0328768  
C636     C      0.764100000000     0.974180000000     0.887880000000     0.111628   
C637     C      0.781130000000     0.948100000000     0.903800000000    -0.203357   
C638     C      0.767050000000     0.510910000000     0.606210000000     0.0254998  
C639     C      0.724870000000     0.976410000000     0.605060000000    -0.00643602 
C640     C      0.765990000000     0.511130000000     0.638350000000     0.0319934  
C641     C      0.725130000000     0.974620000000     0.637530000000     0.109711   
C642     C      0.701560000000     0.954100000000     0.653200000000    -0.203223   
C643     C      0.515280000000     0.762850000000     0.857230000000     0.0231379  
C644     C      0.972240000000     0.729440000000     0.856320000000    -0.00749681 
C645     C      0.513950000000     0.763690000000     0.889390000000     0.0288409  
C646     C      0.972070000000     0.728340000000     0.888780000000     0.108984   
C647     C      0.947740000000     0.708700000000     0.904440000000    -0.202553   
C648     C      0.476240000000     0.762560000000     0.638680000000     0.0244554  
C649     C      0.520380000000     0.730570000000     0.639500000000    -0.00745261 
C650     C      0.477570000000     0.763580000000     0.606530000000     0.0323619  
C651     C      0.520700000000     0.729760000000     0.607040000000     0.112611   
C652     C      0.546100000000     0.711750000000     0.591140000000    -0.203725   
C653     C      0.605840000000     0.980300000000     0.768150000000     0.025534   
C654     C      0.605100000000     0.512210000000     0.723970000000    -0.00489068 
C655     C      0.638000000000     0.979180000000     0.766790000000     0.0311272  
C656     C      0.637560000000     0.513180000000     0.723800000000     0.111386   
C657     C      0.653430000000     0.531830000000     0.698840000000    -0.203373   
C658     C      0.887270000000     0.507050000000     0.723710000000     0.0261947  
C659     C      0.887780000000     0.983120000000     0.772760000000    -0.00536196 
C660     C      0.855090000000     0.507720000000     0.724360000000     0.0347577  
C661     C      0.855330000000     0.981480000000     0.772490000000     0.112968   
C662     C      0.838830000000     0.967150000000     0.799760000000    -0.206085   
C663     C      0.510800000000     0.886630000000     0.724950000000     0.0261886  
C664     C      0.981350000000     0.887640000000     0.770840000000    -0.0054673  
C665     C      0.511880000000     0.854440000000     0.726450000000     0.0330859  
C666     C      0.980450000000     0.855240000000     0.771360000000     0.112523   
C667     C      0.963710000000     0.839490000000     0.797730000000    -0.203659   
C668     C      0.010560000000     0.605440000000     0.770300000000     0.0295156  
C669     C      0.481440000000     0.604720000000     0.724220000000    -0.00546528 
C670     C      0.011660000000     0.637640000000     0.769040000000     0.0355876  
C671     C      0.480640000000     0.637140000000     0.723850000000     0.11347    
C672     C      0.464260000000     0.653020000000     0.697340000000    -0.20438    
Cu1      Cu     0.496260000000     0.496500000000     0.218970000000     0.846051   
Cu2      Cu     0.996800000000     0.995630000000     0.275940000000     0.835444   
Cu3      Cu     0.467680000000     0.246180000000     0.247370000000     0.839901   
Cu4      Cu     0.024340000000     0.246160000000     0.248510000000     0.84218    
Cu5      Cu     0.246330000000     0.466650000000     0.248080000000     0.843302   
Cu6      Cu     0.247070000000     0.023650000000     0.245710000000     0.846643   
Cu7      Cu     0.275400000000     0.996950000000     0.497240000000     0.831587   
Cu8      Cu     0.218740000000     0.495860000000     0.996380000000     0.826382   
Cu9      Cu     0.995640000000     0.217820000000     0.498100000000     0.828576   
Cu10     Cu     0.496460000000     0.274520000000     0.997940000000     0.827561   
Cu11     Cu     0.245840000000     0.246510000000     0.025330000000     0.840555   
Cu12     Cu     0.246230000000     0.246200000000     0.468650000000     0.843196   
Cu13     Cu     0.496260000000     0.496500000000     0.718970000000     0.845636   
Cu14     Cu     0.996800000000     0.995630000000     0.775940000000     0.835275   
Cu15     Cu     0.467680000000     0.246180000000     0.747370000000     0.839894   
Cu16     Cu     0.024340000000     0.246160000000     0.748510000000     0.842178   
Cu17     Cu     0.246330000000     0.466650000000     0.748080000000     0.843304   
Cu18     Cu     0.247070000000     0.023650000000     0.745710000000     0.846623   
Cu19     Cu     0.275400000000     0.996950000000     0.997240000000     0.81846    
Cu20     Cu     0.218740000000     0.495860000000     0.496380000000     0.839527   
Cu21     Cu     0.995640000000     0.217820000000     0.998100000000     0.81542    
Cu22     Cu     0.496460000000     0.274520000000     0.497940000000     0.840742   
Cu23     Cu     0.245840000000     0.246510000000     0.525330000000     0.835798   
Cu24     Cu     0.246230000000     0.246200000000     0.968650000000     0.834565   
Cu25     Cu     0.496260000000     0.996500000000     0.218970000000     0.840919   
Cu26     Cu     0.996800000000     0.495630000000     0.275940000000     0.840149   
Cu27     Cu     0.467680000000     0.746170000000     0.247370000000     0.839872   
Cu28     Cu     0.024340000000     0.746160000000     0.248510000000     0.84216    
Cu29     Cu     0.246330000000     0.966650000000     0.248080000000     0.83729    
Cu30     Cu     0.247070000000     0.523650000000     0.245710000000     0.84319    
Cu31     Cu     0.275400000000     0.496950000000     0.497240000000     0.840957   
Cu32     Cu     0.218740000000     0.995860000000     0.996380000000     0.817155   
Cu33     Cu     0.995640000000     0.717820000000     0.498100000000     0.828238   
Cu34     Cu     0.496460000000     0.774520000000     0.997940000000     0.82745    
Cu35     Cu     0.245840000000     0.746510000000     0.025330000000     0.84058    
Cu36     Cu     0.246230000000     0.746190000000     0.468650000000     0.843161   
Cu37     Cu     0.496260000000     0.996500000000     0.718970000000     0.840499   
Cu38     Cu     0.996800000000     0.495630000000     0.775940000000     0.839979   
Cu39     Cu     0.467680000000     0.746170000000     0.747370000000     0.839865   
Cu40     Cu     0.024340000000     0.746160000000     0.748510000000     0.842158   
Cu41     Cu     0.246330000000     0.966650000000     0.748080000000     0.837285   
Cu42     Cu     0.247070000000     0.523650000000     0.745710000000     0.843165   
Cu43     Cu     0.275400000000     0.496950000000     0.997240000000     0.827776   
Cu44     Cu     0.218740000000     0.995860000000     0.496380000000     0.830247   
Cu45     Cu     0.995640000000     0.717820000000     0.998100000000     0.815067   
Cu46     Cu     0.496460000000     0.774520000000     0.497940000000     0.840633   
Cu47     Cu     0.245840000000     0.746510000000     0.525330000000     0.835818   
Cu48     Cu     0.246230000000     0.746190000000     0.968650000000     0.834523   
Cu49     Cu     0.996260000000     0.496500000000     0.218970000000     0.842148   
Cu50     Cu     0.496800000000     0.995630000000     0.275940000000     0.839277   
Cu51     Cu     0.967680000000     0.246180000000     0.247370000000     0.83516    
Cu52     Cu     0.524340000000     0.246160000000     0.248510000000     0.83931    
Cu53     Cu     0.746330000000     0.466650000000     0.248080000000     0.84329    
Cu54     Cu     0.747070000000     0.023650000000     0.245710000000     0.846647   
Cu55     Cu     0.775400000000     0.996950000000     0.497240000000     0.831543   
Cu56     Cu     0.718740000000     0.495860000000     0.996380000000     0.826098   
Cu57     Cu     0.495640000000     0.217820000000     0.498100000000     0.836029   
Cu58     Cu     0.996450000000     0.274520000000     0.997940000000     0.823776   
Cu59     Cu     0.745840000000     0.246510000000     0.025330000000     0.840589   
Cu60     Cu     0.746230000000     0.246200000000     0.468650000000     0.843062   
Cu61     Cu     0.996260000000     0.496500000000     0.718970000000     0.841732   
Cu62     Cu     0.496800000000     0.995630000000     0.775940000000     0.839105   
Cu63     Cu     0.967680000000     0.246180000000     0.747370000000     0.83515    
Cu64     Cu     0.524340000000     0.246160000000     0.748510000000     0.839304   
Cu65     Cu     0.746330000000     0.466650000000     0.748080000000     0.843292   
Cu66     Cu     0.747070000000     0.023650000000     0.745710000000     0.846628   
Cu67     Cu     0.775400000000     0.996950000000     0.997240000000     0.818418   
Cu68     Cu     0.718740000000     0.495860000000     0.496380000000     0.839254   
Cu69     Cu     0.495640000000     0.217820000000     0.998100000000     0.82282    
Cu70     Cu     0.996450000000     0.274520000000     0.497940000000     0.836906   
Cu71     Cu     0.745840000000     0.246510000000     0.525330000000     0.835828   
Cu72     Cu     0.746230000000     0.246200000000     0.968650000000     0.834428   
Cu73     Cu     0.996260000000     0.996500000000     0.218970000000     0.837032   
Cu74     Cu     0.496800000000     0.495630000000     0.275940000000     0.843998   
Cu75     Cu     0.967680000000     0.746170000000     0.247370000000     0.835125   
Cu76     Cu     0.524340000000     0.746160000000     0.248510000000     0.839285   
Cu77     Cu     0.746330000000     0.966650000000     0.248080000000     0.837271   
Cu78     Cu     0.747070000000     0.523650000000     0.245710000000     0.84319    
Cu79     Cu     0.775400000000     0.496950000000     0.497240000000     0.840919   
Cu80     Cu     0.718740000000     0.995860000000     0.996380000000     0.816858   
Cu81     Cu     0.495640000000     0.717820000000     0.498100000000     0.835702   
Cu82     Cu     0.996450000000     0.774520000000     0.997940000000     0.823663   
Cu83     Cu     0.745840000000     0.746510000000     0.025330000000     0.840613   
Cu84     Cu     0.746230000000     0.746190000000     0.468650000000     0.843027   
Cu85     Cu     0.996260000000     0.996500000000     0.718970000000     0.83661    
Cu86     Cu     0.496800000000     0.495630000000     0.775940000000     0.843824   
Cu87     Cu     0.967680000000     0.746170000000     0.747370000000     0.835114   
Cu88     Cu     0.524340000000     0.746160000000     0.748510000000     0.839279   
Cu89     Cu     0.746330000000     0.966650000000     0.748080000000     0.837266   
Cu90     Cu     0.747070000000     0.523650000000     0.745710000000     0.843164   
Cu91     Cu     0.775400000000     0.496950000000     0.997240000000     0.827739   
Cu92     Cu     0.718740000000     0.995860000000     0.496380000000     0.829961   
Cu93     Cu     0.495640000000     0.717820000000     0.998100000000     0.822479   
Cu94     Cu     0.996450000000     0.774520000000     0.497940000000     0.836796   
Cu95     Cu     0.745840000000     0.746510000000     0.525330000000     0.835847   
Cu96     Cu     0.746230000000     0.746190000000     0.968650000000     0.834386   
H1       H      0.399390000000     0.215270000000     0.034940000000     0.0332927  
H2       H      0.343420000000     0.215840000000     0.036100000000     0.0359654  
H3       H      0.341950000000     0.277080000000     0.459140000000     0.0416537  
H4       H      0.422080000000     0.272190000000     0.441270000000     0.0782179  
H5       H      0.386630000000     0.291610000000     0.433470000000     0.0671751  
H6       H      0.411490000000     0.306280000000     0.463260000000     0.0819859  
H7       H      0.092300000000     0.275510000000     0.034620000000     0.0316524  
H8       H      0.148210000000     0.275060000000     0.036070000000     0.0361263  
H9       H      0.150270000000     0.217320000000     0.456400000000     0.0434674  
H10      H      0.070520000000     0.224510000000     0.437900000000     0.0829248  
H11      H      0.105590000000     0.204440000000     0.429580000000     0.0706973  
H12      H      0.079750000000     0.188880000000     0.458060000000     0.0839834  
H13      H      0.210370000000     0.342960000000     0.465560000000     0.0335929  
H14      H      0.209200000000     0.398870000000     0.466290000000     0.0360707  
H15      H      0.288630000000     0.400280000000     0.024380000000     0.0442358  
H16      H      0.306430000000     0.320100000000     0.016860000000     0.0847361  
H17      H      0.315640000000     0.355300000000     0.036260000000     0.0714893  
H18      H      0.286940000000     0.330190000000     0.052630000000     0.0855615  
H19      H      0.283330000000     0.150080000000     0.467930000000     0.0335121  
H20      H      0.285400000000     0.094230000000     0.469340000000     0.0374459  
H21      H      0.204610000000     0.092130000000     0.025520000000     0.0445673  
H22      H      0.185720000000     0.171900000000     0.016790000000     0.0847442  
H23      H      0.176770000000     0.136830000000     0.036560000000     0.0712294  
H24      H      0.204730000000     0.162680000000     0.053050000000     0.0849568  
H25      H      0.219730000000     0.036780000000     0.400510000000     0.0331881  
H26      H      0.220880000000     0.038360000000     0.344370000000     0.0364873  
H27      H      0.275120000000     0.456270000000     0.342940000000     0.0396455  
H28      H      0.266670000000     0.438010000000     0.422430000000     0.0818812  
H29      H      0.286780000000     0.429050000000     0.387550000000     0.0680571  
H30      H      0.303130000000     0.456840000000     0.413650000000     0.0826087  
H31      H      0.282550000000     0.025440000000     0.150600000000     0.0327821  
H32      H      0.283990000000     0.025410000000     0.094780000000     0.0373954  
H33      H      0.208270000000     0.462650000000     0.092240000000     0.0445134  
H34      H      0.189780000000     0.466730000000     0.172130000000     0.0787621  
H35      H      0.183340000000     0.446300000000     0.136890000000     0.0703209  
H36      H      0.213160000000     0.433270000000     0.162620000000     0.084436   
H37      H      0.030870000000     0.277650000000     0.401530000000     0.0321492  
H38      H      0.032690000000     0.276660000000     0.345670000000     0.03496    
H39      H      0.455410000000     0.215840000000     0.343630000000     0.0434253  
H40      H      0.436920000000     0.221400000000     0.423880000000     0.0787966  
H41      H      0.428820000000     0.202320000000     0.388310000000     0.06911    
H42      H      0.458390000000     0.187050000000     0.413110000000     0.0834982  
H43      H      0.960230000000     0.277000000000     0.094370000000     0.0336486  
H44      H      0.958360000000     0.275750000000     0.150260000000     0.0366613  
H45      H      0.037700000000     0.217540000000     0.152120000000     0.0429592  
H46      H      0.056380000000     0.225580000000     0.072140000000     0.0829409  
H47      H      0.065170000000     0.205910000000     0.107310000000     0.0699328  
H48      H      0.536640000000     0.189830000000     0.081800000000     0.083928   
H49      H      0.150150000000     0.465670000000     0.284080000000     0.0338168  
H50      H      0.094200000000     0.467130000000     0.286010000000     0.037247   
H51      H      0.092470000000     0.025250000000     0.206660000000     0.0444342  
H52      H      0.172670000000     0.018490000000     0.188420000000     0.0807998  
H53      H      0.137340000000     0.037850000000     0.179780000000     0.0708243  
H54      H      0.162460000000     0.053650000000     0.208800000000     0.0847885  
H55      H      0.342870000000     0.018010000000     0.205030000000     0.0292501  
H56      H      0.398980000000     0.017240000000     0.204040000000     0.0365483  
H57      H      0.400280000000     0.473490000000     0.292240000000     0.042436   
H58      H      0.327130000000     0.445550000000     0.292450000000     0.0824943  
H59      H      0.355020000000     0.461340000000     0.318800000000     0.0686085  
H60      H      0.321440000000     0.483530000000     0.309090000000     0.0796312  
H61      H      0.024320000000     0.342100000000     0.208520000000     0.0336331  
H62      H      0.022990000000     0.398160000000     0.206350000000     0.0371729  
H63      H      0.469330000000     0.400340000000     0.288830000000     0.0431998  
H64      H      0.478130000000     0.320690000000     0.307560000000     0.0814225  
H65      H      0.458600000000     0.355800000000     0.316880000000     0.0688842  
H66      H      0.441470000000     0.329880000000     0.289370000000     0.0836022  
H67      H      0.523960000000     0.149840000000     0.287160000000     0.0331041  
H68      H      0.522610000000     0.093810000000     0.288930000000     0.0371482  
H69      H      0.969550000000     0.092160000000     0.206060000000     0.0443918  
H70      H      0.978800000000     0.171890000000     0.187810000000     0.08135    
H71      H      0.959450000000     0.136810000000     0.178030000000     0.0699936  
H72      H      0.941870000000     0.162550000000     0.205420000000     0.0846633  
H73      H      0.399390000000     0.215270000000     0.534940000000     0.0331465  
H74      H      0.343420000000     0.215840000000     0.536100000000     0.0358738  
H75      H      0.341950000000     0.277080000000     0.959150000000     0.041361   
H76      H      0.422080000000     0.272190000000     0.941270000000     0.0780888  
H77      H      0.386630000000     0.291610000000     0.933470000000     0.0666646  
H78      H      0.411490000000     0.306280000000     0.963260000000     0.0808484  
H79      H      0.092300000000     0.275510000000     0.534620000000     0.0316172  
H80      H      0.148210000000     0.275060000000     0.536070000000     0.0361131  
H81      H      0.150270000000     0.217320000000     0.956400000000     0.0431934  
H82      H      0.070520000000     0.224510000000     0.937900000000     0.0827247  
H83      H      0.105590000000     0.204440000000     0.929580000000     0.0701801  
H84      H      0.079750000000     0.188880000000     0.958060000000     0.082924   
H85      H      0.210370000000     0.342960000000     0.965560000000     0.033186   
H86      H      0.209200000000     0.398870000000     0.966290000000     0.035796   
H87      H      0.288630000000     0.400280000000     0.524380000000     0.0440987  
H88      H      0.306430000000     0.320100000000     0.516850000000     0.0816655  
H89      H      0.315640000000     0.355300000000     0.536260000000     0.0698682  
H90      H      0.286940000000     0.330190000000     0.552630000000     0.0845942  
H91      H      0.283330000000     0.150080000000     0.967940000000     0.033094   
H92      H      0.285400000000     0.094230000000     0.969340000000     0.0371174  
H93      H      0.204610000000     0.092130000000     0.525520000000     0.0444578  
H94      H      0.185720000000     0.171900000000     0.516790000000     0.0817738  
H95      H      0.176770000000     0.136830000000     0.536560000000     0.0696935  
H96      H      0.204730000000     0.162680000000     0.553050000000     0.0840287  
H97      H      0.219730000000     0.036780000000     0.900510000000     0.0327991  
H98      H      0.220880000000     0.038360000000     0.844370000000     0.0363667  
H99      H      0.275120000000     0.456270000000     0.842940000000     0.039587   
H100     H      0.266670000000     0.438010000000     0.922430000000     0.0814454  
H101     H      0.286780000000     0.429050000000     0.887550000000     0.0677284  
H102     H      0.303130000000     0.456840000000     0.913640000000     0.0819402  
H103     H      0.282550000000     0.025440000000     0.650600000000     0.0325756  
H104     H      0.283990000000     0.025410000000     0.594780000000     0.0365664  
H105     H      0.208270000000     0.462650000000     0.592240000000     0.0436998  
H106     H      0.189780000000     0.466730000000     0.672130000000     0.078614   
H107     H      0.183340000000     0.446300000000     0.636890000000     0.0698046  
H108     H      0.213160000000     0.433270000000     0.662620000000     0.0842062  
H109     H      0.030870000000     0.277650000000     0.901530000000     0.0318123  
H110     H      0.032690000000     0.276660000000     0.845670000000     0.034858   
H111     H      0.455410000000     0.215840000000     0.843630000000     0.0433607  
H112     H      0.436920000000     0.221400000000     0.923880000000     0.0783065  
H113     H      0.428820000000     0.202320000000     0.888310000000     0.0688304  
H114     H      0.458390000000     0.187050000000     0.913110000000     0.0828431  
H115     H      0.960230000000     0.277000000000     0.594370000000     0.0328497  
H116     H      0.958360000000     0.275750000000     0.650260000000     0.0364585  
H117     H      0.037700000000     0.217540000000     0.652120000000     0.0428326  
H118     H      0.056380000000     0.225580000000     0.572140000000     0.0817015  
H119     H      0.065170000000     0.205910000000     0.607310000000     0.0693813  
H120     H      0.536640000000     0.189830000000     0.581800000000     0.0827705  
H121     H      0.150150000000     0.465670000000     0.784080000000     0.0337354  
H122     H      0.094200000000     0.467130000000     0.786010000000     0.0371121  
H123     H      0.092470000000     0.025250000000     0.706660000000     0.0442561  
H124     H      0.172670000000     0.018490000000     0.688420000000     0.0806424  
H125     H      0.137340000000     0.037850000000     0.679770000000     0.0704615  
H126     H      0.162460000000     0.053650000000     0.708800000000     0.0846553  
H127     H      0.342870000000     0.018010000000     0.705030000000     0.0290814  
H128     H      0.398980000000     0.017240000000     0.704040000000     0.0363119  
H129     H      0.400280000000     0.473490000000     0.792240000000     0.0423087  
H130     H      0.327130000000     0.445550000000     0.792450000000     0.0824251  
H131     H      0.355020000000     0.461340000000     0.818800000000     0.0684092  
H132     H      0.321440000000     0.483530000000     0.809090000000     0.0795545  
H133     H      0.024320000000     0.342100000000     0.708520000000     0.0334729  
H134     H      0.022990000000     0.398160000000     0.706350000000     0.0369664  
H135     H      0.469330000000     0.400340000000     0.788830000000     0.0430799  
H136     H      0.478130000000     0.320690000000     0.807560000000     0.0813389  
H137     H      0.458600000000     0.355800000000     0.816880000000     0.0686883  
H138     H      0.441470000000     0.329880000000     0.789370000000     0.0835292  
H139     H      0.523960000000     0.149840000000     0.787160000000     0.0330313  
H140     H      0.522610000000     0.093810000000     0.788930000000     0.0370102  
H141     H      0.969550000000     0.092160000000     0.706060000000     0.0441985  
H142     H      0.978800000000     0.171890000000     0.687810000000     0.081154   
H143     H      0.959450000000     0.136810000000     0.678030000000     0.0695874  
H144     H      0.941870000000     0.162550000000     0.705420000000     0.0845286  
H145     H      0.399390000000     0.715270000000     0.034940000000     0.0331545  
H146     H      0.343420000000     0.715840000000     0.036100000000     0.0358693  
H147     H      0.341950000000     0.777080000000     0.459140000000     0.0416253  
H148     H      0.422080000000     0.772190000000     0.441270000000     0.0781995  
H149     H      0.386630000000     0.791610000000     0.433470000000     0.0671276  
H150     H      0.411490000000     0.806270000000     0.463260000000     0.0819163  
H151     H      0.092300000000     0.775510000000     0.034620000000     0.0315726  
H152     H      0.148210000000     0.775060000000     0.036070000000     0.0360892  
H153     H      0.150270000000     0.717320000000     0.456400000000     0.0433895  
H154     H      0.070520000000     0.724510000000     0.437900000000     0.0828298  
H155     H      0.105590000000     0.704440000000     0.429580000000     0.0705141  
H156     H      0.079750000000     0.688880000000     0.458060000000     0.0837107  
H157     H      0.210370000000     0.842960000000     0.465560000000     0.0335224  
H158     H      0.209200000000     0.898870000000     0.466290000000     0.0358208  
H159     H      0.288630000000     0.900280000000     0.024380000000     0.0439476  
H160     H      0.306430000000     0.820100000000     0.016860000000     0.0846896  
H161     H      0.315640000000     0.855300000000     0.036260000000     0.0712697  
H162     H      0.286940000000     0.830190000000     0.052630000000     0.085467   
H163     H      0.283330000000     0.650080000000     0.467930000000     0.0333333  
H164     H      0.285400000000     0.594230000000     0.469340000000     0.0368275  
H165     H      0.204610000000     0.592130000000     0.025520000000     0.044005   
H166     H      0.185720000000     0.671900000000     0.016790000000     0.0846233  
H167     H      0.176770000000     0.636830000000     0.036560000000     0.0708605  
H168     H      0.204730000000     0.662680000000     0.053050000000     0.0847953  
H169     H      0.219730000000     0.536780000000     0.400510000000     0.0330421  
H170     H      0.220880000000     0.538360000000     0.344370000000     0.0364649  
H171     H      0.275120000000     0.956270000000     0.342940000000     0.0397051  
H172     H      0.266670000000     0.938010000000     0.422430000000     0.0817553  
H173     H      0.286780000000     0.929050000000     0.387550000000     0.0678378  
H174     H      0.303130000000     0.956840000000     0.413650000000     0.0820888  
H175     H      0.282550000000     0.525440000000     0.150600000000     0.0327387  
H176     H      0.283990000000     0.525410000000     0.094780000000     0.0372966  
H177     H      0.208270000000     0.962650000000     0.092240000000     0.0443651  
H178     H      0.189780000000     0.966730000000     0.172130000000     0.077627   
H179     H      0.183340000000     0.946300000000     0.136890000000     0.0696489  
H180     H      0.213160000000     0.933270000000     0.162620000000     0.0841981  
H181     H      0.030870000000     0.777650000000     0.401530000000     0.0320782  
H182     H      0.032690000000     0.776660000000     0.345670000000     0.0349394  
H183     H      0.455410000000     0.715840000000     0.343630000000     0.0433122  
H184     H      0.436920000000     0.721400000000     0.423880000000     0.0787007  
H185     H      0.428820000000     0.702320000000     0.388310000000     0.0688915  
H186     H      0.458390000000     0.687050000000     0.413110000000     0.083176   
H187     H      0.960230000000     0.777000000000     0.094370000000     0.0335679  
H188     H      0.958360000000     0.775750000000     0.150260000000     0.0365989  
H189     H      0.037700000000     0.717540000000     0.152120000000     0.0428876  
H190     H      0.056380000000     0.725580000000     0.072140000000     0.0828679  
H191     H      0.065170000000     0.705910000000     0.107310000000     0.0697856  
H192     H      0.536640000000     0.689830000000     0.081800000000     0.0836803  
H193     H      0.150150000000     0.965670000000     0.284080000000     0.0335694  
H194     H      0.094200000000     0.967130000000     0.286010000000     0.0369366  
H195     H      0.092470000000     0.525250000000     0.206660000000     0.0439734  
H196     H      0.172670000000     0.518490000000     0.188420000000     0.0786149  
H197     H      0.137340000000     0.537850000000     0.179780000000     0.0696479  
H198     H      0.162460000000     0.553650000000     0.208800000000     0.0841125  
H199     H      0.342870000000     0.518010000000     0.205030000000     0.028918   
H200     H      0.398980000000     0.517240000000     0.204040000000     0.0359619  
H201     H      0.400280000000     0.973490000000     0.292240000000     0.0421475  
H202     H      0.327130000000     0.945550000000     0.292450000000     0.0823439  
H203     H      0.355020000000     0.961340000000     0.318800000000     0.0680578  
H204     H      0.321440000000     0.983530000000     0.309090000000     0.0787492  
H205     H      0.024320000000     0.842100000000     0.208520000000     0.0335574  
H206     H      0.022990000000     0.898160000000     0.206350000000     0.0369483  
H207     H      0.469330000000     0.900340000000     0.288830000000     0.0430731  
H208     H      0.478130000000     0.820690000000     0.307560000000     0.0813837  
H209     H      0.458600000000     0.855800000000     0.316880000000     0.0687569  
H210     H      0.441470000000     0.829880000000     0.289370000000     0.0835487  
H211     H      0.523960000000     0.649840000000     0.287160000000     0.0329144  
H212     H      0.522610000000     0.593810000000     0.288930000000     0.0365017  
H213     H      0.969550000000     0.592160000000     0.206060000000     0.0438728  
H214     H      0.978800000000     0.671890000000     0.187810000000     0.081228   
H215     H      0.959450000000     0.636810000000     0.178030000000     0.0696386  
H216     H      0.941870000000     0.662550000000     0.205420000000     0.084479   
H217     H      0.399390000000     0.715270000000     0.534940000000     0.0330074  
H218     H      0.343420000000     0.715840000000     0.536100000000     0.0357762  
H219     H      0.341950000000     0.777080000000     0.959150000000     0.0413329  
H220     H      0.422080000000     0.772190000000     0.941270000000     0.0780704  
H221     H      0.386630000000     0.791610000000     0.933470000000     0.0666172  
H222     H      0.411490000000     0.806270000000     0.963260000000     0.08078    
H223     H      0.092300000000     0.775510000000     0.534620000000     0.0315377  
H224     H      0.148210000000     0.775060000000     0.536070000000     0.0360762  
H225     H      0.150270000000     0.717320000000     0.956400000000     0.0431149  
H226     H      0.070520000000     0.724510000000     0.937900000000     0.0826297  
H227     H      0.105590000000     0.704440000000     0.929580000000     0.0699963  
H228     H      0.079750000000     0.688880000000     0.958060000000     0.08265    
H229     H      0.210370000000     0.842960000000     0.965560000000     0.0331158  
H230     H      0.209200000000     0.898870000000     0.966290000000     0.0355467  
H231     H      0.288630000000     0.900280000000     0.524380000000     0.0438096  
H232     H      0.306430000000     0.820100000000     0.516850000000     0.0816173  
H233     H      0.315640000000     0.855300000000     0.536260000000     0.0696478  
H234     H      0.286940000000     0.830190000000     0.552630000000     0.0844994  
H235     H      0.283330000000     0.650080000000     0.967940000000     0.0329149  
H236     H      0.285400000000     0.594230000000     0.969340000000     0.0364991  
H237     H      0.204610000000     0.592130000000     0.525520000000     0.0438934  
H238     H      0.185720000000     0.671900000000     0.516790000000     0.0816473  
H239     H      0.176770000000     0.636830000000     0.536560000000     0.06932    
H240     H      0.204730000000     0.662680000000     0.553050000000     0.0838651  
H241     H      0.219730000000     0.536780000000     0.900510000000     0.0326519  
H242     H      0.220880000000     0.538360000000     0.844370000000     0.0363439  
H243     H      0.275120000000     0.956270000000     0.842940000000     0.0396467  
H244     H      0.266670000000     0.938010000000     0.922430000000     0.0813198  
H245     H      0.286780000000     0.929050000000     0.887550000000     0.0675096  
H246     H      0.303130000000     0.956840000000     0.913640000000     0.0814222  
H247     H      0.282550000000     0.525440000000     0.650600000000     0.032531   
H248     H      0.283990000000     0.525410000000     0.594780000000     0.0364654  
H249     H      0.208270000000     0.962650000000     0.592240000000     0.0435518  
H250     H      0.189780000000     0.966730000000     0.672130000000     0.077477   
H251     H      0.183340000000     0.946300000000     0.636890000000     0.0691317  
H252     H      0.213160000000     0.933270000000     0.662620000000     0.0839678  
H253     H      0.030870000000     0.777650000000     0.901530000000     0.0317416  
H254     H      0.032690000000     0.776660000000     0.845670000000     0.0348376  
H255     H      0.455410000000     0.715840000000     0.843630000000     0.0432474  
H256     H      0.436920000000     0.721400000000     0.923880000000     0.07821    
H257     H      0.428820000000     0.702320000000     0.888310000000     0.0686113  
H258     H      0.458390000000     0.687050000000     0.913110000000     0.0825199  
H259     H      0.960230000000     0.777000000000     0.594370000000     0.0327685  
H260     H      0.958360000000     0.775750000000     0.650260000000     0.0363958  
H261     H      0.037700000000     0.717540000000     0.652120000000     0.0427606  
H262     H      0.056380000000     0.725580000000     0.572140000000     0.0816269  
H263     H      0.065170000000     0.705910000000     0.607310000000     0.0692328  
H264     H      0.536640000000     0.689830000000     0.581800000000     0.0825198  
H265     H      0.150150000000     0.965670000000     0.784080000000     0.0334887  
H266     H      0.094200000000     0.967130000000     0.786010000000     0.0368024  
H267     H      0.092470000000     0.525250000000     0.706660000000     0.0437932  
H268     H      0.172670000000     0.518490000000     0.688420000000     0.0784521  
H269     H      0.137340000000     0.537850000000     0.679770000000     0.0692811  
H270     H      0.162460000000     0.553650000000     0.708800000000     0.083978   
H271     H      0.342870000000     0.518010000000     0.705030000000     0.0287473  
H272     H      0.398980000000     0.517240000000     0.704040000000     0.0357228  
H273     H      0.400280000000     0.973490000000     0.792240000000     0.042021   
H274     H      0.327130000000     0.945550000000     0.792450000000     0.0822747  
H275     H      0.355020000000     0.961340000000     0.818800000000     0.0678594  
H276     H      0.321440000000     0.983530000000     0.809090000000     0.0786731  
H277     H      0.024320000000     0.842100000000     0.708520000000     0.0333971  
H278     H      0.022990000000     0.898160000000     0.706350000000     0.0367415  
H279     H      0.469330000000     0.900340000000     0.788830000000     0.0429536  
H280     H      0.478130000000     0.820690000000     0.807560000000     0.0813003  
H281     H      0.458600000000     0.855800000000     0.816880000000     0.0685615  
H282     H      0.441470000000     0.829880000000     0.789370000000     0.0834758  
H283     H      0.523960000000     0.649840000000     0.787160000000     0.0328413  
H284     H      0.522610000000     0.593810000000     0.788930000000     0.036363   
H285     H      0.969550000000     0.592160000000     0.706060000000     0.0436779  
H286     H      0.978800000000     0.671890000000     0.687810000000     0.0810313  
H287     H      0.959450000000     0.636810000000     0.678030000000     0.0692306  
H288     H      0.941870000000     0.662550000000     0.705420000000     0.0843436  
H289     H      0.899390000000     0.215270000000     0.034940000000     0.0330999  
H290     H      0.843420000000     0.215840000000     0.036100000000     0.035914   
H291     H      0.841950000000     0.277080000000     0.459140000000     0.0416382  
H292     H      0.922080000000     0.272190000000     0.441270000000     0.0781212  
H293     H      0.886630000000     0.291610000000     0.433470000000     0.0670569  
H294     H      0.911490000000     0.306280000000     0.463260000000     0.081746   
H295     H      0.592300000000     0.275510000000     0.034620000000     0.0312226  
H296     H      0.648210000000     0.275060000000     0.036070000000     0.0360006  
H297     H      0.650280000000     0.217320000000     0.456400000000     0.0433763  
H298     H      0.570520000000     0.224510000000     0.437900000000     0.0821123  
H299     H      0.605590000000     0.204440000000     0.429580000000     0.0703209  
H300     H      0.579750000000     0.188880000000     0.458060000000     0.0832994  
H301     H      0.710370000000     0.342960000000     0.465560000000     0.033488   
H302     H      0.709200000000     0.398870000000     0.466290000000     0.0359301  
H303     H      0.788630000000     0.400280000000     0.024380000000     0.0441771  
H304     H      0.806430000000     0.320100000000     0.016860000000     0.0847076  
H305     H      0.815640000000     0.355300000000     0.036260000000     0.0713911  
H306     H      0.786940000000     0.330190000000     0.052630000000     0.0855177  
H307     H      0.783330000000     0.150080000000     0.467930000000     0.0334526  
H308     H      0.785400000000     0.094230000000     0.469340000000     0.0373939  
H309     H      0.704610000000     0.092130000000     0.025520000000     0.044456   
H310     H      0.685720000000     0.171900000000     0.016790000000     0.0846519  
H311     H      0.676770000000     0.136830000000     0.036560000000     0.0710428  
H312     H      0.704730000000     0.162680000000     0.053050000000     0.0848843  
H313     H      0.719730000000     0.036780000000     0.400510000000     0.0330854  
H314     H      0.720880000000     0.038360000000     0.344370000000     0.0364093  
H315     H      0.775120000000     0.456270000000     0.342940000000     0.0396283  
H316     H      0.766670000000     0.438010000000     0.422430000000     0.0818364  
H317     H      0.786780000000     0.429050000000     0.387550000000     0.0680006  
H318     H      0.803130000000     0.456840000000     0.413650000000     0.0825124  
H319     H      0.782550000000     0.025440000000     0.150600000000     0.0327268  
H320     H      0.783990000000     0.025410000000     0.094780000000     0.0373457  
H321     H      0.708270000000     0.462650000000     0.092240000000     0.0443985  
H322     H      0.689780000000     0.466730000000     0.172130000000     0.0786605  
H323     H      0.683340000000     0.446300000000     0.136890000000     0.0701152  
H324     H      0.713160000000     0.433270000000     0.162620000000     0.0843562  
H325     H      0.530870000000     0.277650000000     0.401530000000     0.0318136  
H326     H      0.532690000000     0.276660000000     0.345670000000     0.0347893  
H327     H      0.955410000000     0.215840000000     0.343630000000     0.0433418  
H328     H      0.936920000000     0.221400000000     0.423880000000     0.0787793  
H329     H      0.928830000000     0.202320000000     0.388310000000     0.0689513  
H330     H      0.958390000000     0.187050000000     0.413110000000     0.0829621  
H331     H      0.460230000000     0.277000000000     0.094370000000     0.0337113  
H332     H      0.458360000000     0.275750000000     0.150260000000     0.0368216  
H333     H      0.537700000000     0.217540000000     0.152120000000     0.0429527  
H334     H      0.556380000000     0.225580000000     0.072140000000     0.0821409  
H335     H      0.565170000000     0.205910000000     0.107310000000     0.069428   
H336     H      0.036640000000     0.189830000000     0.081800000000     0.0849661  
H337     H      0.650150000000     0.465670000000     0.284080000000     0.0336727  
H338     H      0.594200000000     0.467130000000     0.286010000000     0.0367311  
H339     H      0.592470000000     0.025250000000     0.206660000000     0.0439524  
H340     H      0.672670000000     0.018490000000     0.188420000000     0.0807112  
H341     H      0.637340000000     0.037850000000     0.179780000000     0.0705091  
H342     H      0.662460000000     0.053650000000     0.208800000000     0.0846372  
H343     H      0.842870000000     0.018010000000     0.205030000000     0.0292097  
H344     H      0.898980000000     0.017240000000     0.204040000000     0.0364198  
H345     H      0.900280000000     0.473490000000     0.292240000000     0.042317   
H346     H      0.827130000000     0.445550000000     0.292450000000     0.0824624  
H347     H      0.855020000000     0.461340000000     0.318800000000     0.0684996  
H348     H      0.821440000000     0.483530000000     0.309090000000     0.0795926  
H349     H      0.524320000000     0.342100000000     0.208520000000     0.0333117  
H350     H      0.522990000000     0.398160000000     0.206350000000     0.0366892  
H351     H      0.969330000000     0.400340000000     0.288830000000     0.0429883  
H352     H      0.978130000000     0.320690000000     0.307560000000     0.0805796  
H353     H      0.958600000000     0.355800000000     0.316880000000     0.0683424  
H354     H      0.941470000000     0.329880000000     0.289370000000     0.083437   
H355     H      0.023960000000     0.149840000000     0.287160000000     0.0334216  
H356     H      0.022610000000     0.093810000000     0.288930000000     0.0376229  
H357     H      0.469550000000     0.092160000000     0.206060000000     0.0446189  
H358     H      0.478800000000     0.171890000000     0.187810000000     0.0822398  
H359     H      0.459450000000     0.136810000000     0.178030000000     0.0706182  
H360     H      0.441880000000     0.162550000000     0.205420000000     0.0849102  
H361     H      0.899390000000     0.215270000000     0.534940000000     0.0329532  
H362     H      0.843420000000     0.215840000000     0.536100000000     0.0358223  
H363     H      0.841950000000     0.277080000000     0.959150000000     0.0413455  
H364     H      0.922080000000     0.272190000000     0.941270000000     0.0779922  
H365     H      0.886630000000     0.291610000000     0.933470000000     0.0665471  
H366     H      0.911490000000     0.306280000000     0.963260000000     0.0806106  
H367     H      0.592300000000     0.275510000000     0.534620000000     0.0311861  
H368     H      0.648210000000     0.275060000000     0.536070000000     0.0359869  
H369     H      0.650280000000     0.217320000000     0.956400000000     0.0431019  
H370     H      0.570520000000     0.224510000000     0.937900000000     0.0819126  
H371     H      0.605590000000     0.204440000000     0.929580000000     0.0698031  
H372     H      0.579750000000     0.188880000000     0.958060000000     0.0822388  
H373     H      0.710370000000     0.342960000000     0.965560000000     0.0330804  
H374     H      0.709200000000     0.398870000000     0.966290000000     0.0356548  
H375     H      0.788630000000     0.400280000000     0.524380000000     0.0440405  
H376     H      0.806430000000     0.320100000000     0.516850000000     0.0816369  
H377     H      0.815640000000     0.355300000000     0.536260000000     0.0697703  
H378     H      0.786940000000     0.330190000000     0.552630000000     0.0845502  
H379     H      0.783330000000     0.150080000000     0.967940000000     0.0330348  
H380     H      0.785400000000     0.094230000000     0.969340000000     0.0370665  
H381     H      0.704610000000     0.092130000000     0.525520000000     0.0443451  
H382     H      0.685720000000     0.171900000000     0.516790000000     0.0816767  
H383     H      0.676770000000     0.136830000000     0.536560000000     0.0695035  
H384     H      0.704730000000     0.162680000000     0.553050000000     0.0839549  
H385     H      0.719730000000     0.036780000000     0.900510000000     0.0326959  
H386     H      0.720880000000     0.038360000000     0.844370000000     0.0362886  
H387     H      0.775120000000     0.456270000000     0.842940000000     0.0395699  
H388     H      0.766670000000     0.438010000000     0.922430000000     0.0814006  
H389     H      0.786780000000     0.429050000000     0.887550000000     0.0676721  
H390     H      0.803130000000     0.456840000000     0.913640000000     0.0818446  
H391     H      0.782550000000     0.025440000000     0.650600000000     0.0325202  
H392     H      0.783990000000     0.025410000000     0.594780000000     0.0365166  
H393     H      0.708270000000     0.462650000000     0.592240000000     0.0435835  
H394     H      0.689780000000     0.466730000000     0.672130000000     0.0785118  
H395     H      0.683340000000     0.446300000000     0.636890000000     0.0695974  
H396     H      0.713160000000     0.433270000000     0.662620000000     0.0841259  
H397     H      0.530870000000     0.277650000000     0.901530000000     0.0314762  
H398     H      0.532690000000     0.276660000000     0.845670000000     0.034687   
H399     H      0.955410000000     0.215840000000     0.843630000000     0.0432774  
H400     H      0.936920000000     0.221400000000     0.923880000000     0.0782898  
H401     H      0.928830000000     0.202320000000     0.888310000000     0.0686724  
H402     H      0.958390000000     0.187050000000     0.913110000000     0.0823092  
H403     H      0.460230000000     0.277000000000     0.594370000000     0.0329112  
H404     H      0.458360000000     0.275750000000     0.650260000000     0.0366186  
H405     H      0.537700000000     0.217540000000     0.652120000000     0.0428258  
H406     H      0.556380000000     0.225580000000     0.572140000000     0.0808954  
H407     H      0.565170000000     0.205910000000     0.607310000000     0.0688736  
H408     H      0.036640000000     0.189830000000     0.581800000000     0.0838154  
H409     H      0.650150000000     0.465670000000     0.784080000000     0.033591   
H410     H      0.594200000000     0.467130000000     0.786010000000     0.0365956  
H411     H      0.592470000000     0.025250000000     0.706660000000     0.0437729  
H412     H      0.672670000000     0.018490000000     0.688420000000     0.0805534  
H413     H      0.637340000000     0.037850000000     0.679770000000     0.0701449  
H414     H      0.662460000000     0.053650000000     0.708800000000     0.0845036  
H415     H      0.842870000000     0.018010000000     0.705030000000     0.0290409  
H416     H      0.898980000000     0.017240000000     0.704040000000     0.0361834  
H417     H      0.900280000000     0.473490000000     0.792240000000     0.0421902  
H418     H      0.827130000000     0.445550000000     0.792450000000     0.0823933  
H419     H      0.855020000000     0.461340000000     0.818800000000     0.0683008  
H420     H      0.821440000000     0.483530000000     0.809090000000     0.0795162  
H421     H      0.524320000000     0.342100000000     0.708520000000     0.03315    
H422     H      0.522990000000     0.398160000000     0.706350000000     0.0364808  
H423     H      0.969330000000     0.400340000000     0.788830000000     0.0428691  
H424     H      0.978130000000     0.320690000000     0.807560000000     0.0804969  
H425     H      0.958600000000     0.355800000000     0.816880000000     0.0681476  
H426     H      0.941470000000     0.329880000000     0.789370000000     0.0833642  
H427     H      0.023960000000     0.149840000000     0.787160000000     0.0333489  
H428     H      0.022610000000     0.093810000000     0.788930000000     0.0374854  
H429     H      0.469550000000     0.092160000000     0.706060000000     0.0444256  
H430     H      0.478800000000     0.171890000000     0.687810000000     0.0820444  
H431     H      0.459450000000     0.136810000000     0.678030000000     0.0702122  
H432     H      0.441880000000     0.162550000000     0.705420000000     0.0847758  
H433     H      0.899390000000     0.715270000000     0.034940000000     0.0329614  
H434     H      0.843420000000     0.715840000000     0.036100000000     0.0358178  
H435     H      0.841950000000     0.777080000000     0.459140000000     0.0416098  
H436     H      0.922080000000     0.772190000000     0.441270000000     0.0781028  
H437     H      0.886630000000     0.791610000000     0.433470000000     0.0670094  
H438     H      0.911490000000     0.806270000000     0.463260000000     0.0816767  
H439     H      0.592300000000     0.775510000000     0.034620000000     0.0311422  
H440     H      0.648210000000     0.775060000000     0.036070000000     0.0359633  
H441     H      0.650280000000     0.717320000000     0.456400000000     0.043298   
H442     H      0.570520000000     0.724510000000     0.437900000000     0.0820156  
H443     H      0.605590000000     0.704440000000     0.429580000000     0.0701364  
H444     H      0.579750000000     0.688880000000     0.458060000000     0.0830242  
H445     H      0.710370000000     0.842960000000     0.465560000000     0.0334173  
H446     H      0.709200000000     0.898870000000     0.466290000000     0.0356797  
H447     H      0.788630000000     0.900280000000     0.024380000000     0.043889   
H448     H      0.806430000000     0.820100000000     0.016860000000     0.0846611  
H449     H      0.815640000000     0.855300000000     0.036260000000     0.0711717  
H450     H      0.786940000000     0.830190000000     0.052630000000     0.0854232  
H451     H      0.783330000000     0.650080000000     0.467930000000     0.0332737  
H452     H      0.785400000000     0.594230000000     0.469340000000     0.0367751  
H453     H      0.704610000000     0.592130000000     0.025520000000     0.0438923  
H454     H      0.685720000000     0.671900000000     0.016790000000     0.0845304  
H455     H      0.676770000000     0.636830000000     0.036560000000     0.0706725  
H456     H      0.704730000000     0.662680000000     0.053050000000     0.0847223  
H457     H      0.719730000000     0.536780000000     0.400510000000     0.0329385  
H458     H      0.720880000000     0.538360000000     0.344370000000     0.0363861  
H459     H      0.775120000000     0.956270000000     0.342940000000     0.0396881  
H460     H      0.766670000000     0.938010000000     0.422430000000     0.0817104  
H461     H      0.786780000000     0.929050000000     0.387550000000     0.0677812  
H462     H      0.803130000000     0.956840000000     0.413650000000     0.081993   
H463     H      0.782550000000     0.525440000000     0.150600000000     0.0326833  
H464     H      0.783990000000     0.525410000000     0.094780000000     0.0372468  
H465     H      0.708270000000     0.962650000000     0.092240000000     0.0442499  
H466     H      0.689780000000     0.966730000000     0.172130000000     0.0775232  
H467     H      0.683340000000     0.946300000000     0.136890000000     0.0694419  
H468     H      0.713160000000     0.933270000000     0.162620000000     0.0841179  
H469     H      0.530870000000     0.777650000000     0.401530000000     0.0317425  
H470     H      0.532690000000     0.776660000000     0.345670000000     0.034769   
H471     H      0.955410000000     0.715840000000     0.343630000000     0.0432285  
H472     H      0.936920000000     0.721400000000     0.423880000000     0.0786832  
H473     H      0.928830000000     0.702320000000     0.388310000000     0.0687323  
H474     H      0.958390000000     0.687050000000     0.413110000000     0.0826392  
H475     H      0.460230000000     0.777000000000     0.094370000000     0.0336303  
H476     H      0.458360000000     0.775750000000     0.150260000000     0.0367589  
H477     H      0.537700000000     0.717540000000     0.152120000000     0.0428805  
H478     H      0.556380000000     0.725580000000     0.072140000000     0.0820663  
H479     H      0.565170000000     0.705910000000     0.107310000000     0.0692793  
H480     H      0.036640000000     0.689830000000     0.081800000000     0.0847221  
H481     H      0.650150000000     0.965670000000     0.284080000000     0.0334255  
H482     H      0.594200000000     0.967130000000     0.286010000000     0.0364201  
H483     H      0.592470000000     0.525250000000     0.206660000000     0.0434886  
H484     H      0.672670000000     0.518490000000     0.188420000000     0.0785217  
H485     H      0.637340000000     0.537850000000     0.179780000000     0.0693289  
H486     H      0.662460000000     0.553650000000     0.208800000000     0.0839594  
H487     H      0.842870000000     0.518010000000     0.205030000000     0.0288772  
H488     H      0.898980000000     0.517240000000     0.204040000000     0.0358331  
H489     H      0.900280000000     0.973490000000     0.292240000000     0.0420292  
H490     H      0.827130000000     0.945550000000     0.292450000000     0.0823121  
H491     H      0.855020000000     0.961340000000     0.318800000000     0.0679495  
H492     H      0.821440000000     0.983530000000     0.309090000000     0.0787108  
H493     H      0.524320000000     0.842100000000     0.208520000000     0.0332353  
H494     H      0.522990000000     0.898160000000     0.206350000000     0.0364639  
H495     H      0.969330000000     0.900340000000     0.288830000000     0.0428621  
H496     H      0.978130000000     0.820690000000     0.307560000000     0.0805406  
H497     H      0.958600000000     0.855800000000     0.316880000000     0.0682154  
H498     H      0.941470000000     0.829880000000     0.289370000000     0.0833835  
H499     H      0.023960000000     0.649840000000     0.287160000000     0.0332335  
H500     H      0.022610000000     0.593810000000     0.288930000000     0.0369801  
H501     H      0.469550000000     0.592160000000     0.206060000000     0.0441     
H502     H      0.478800000000     0.671890000000     0.187810000000     0.0821189  
H503     H      0.459450000000     0.636810000000     0.178030000000     0.070264   
H504     H      0.441880000000     0.662550000000     0.205420000000     0.0847262  
H505     H      0.899390000000     0.715270000000     0.534940000000     0.0328138  
H506     H      0.843420000000     0.715840000000     0.536100000000     0.0357245  
H507     H      0.841950000000     0.777080000000     0.959150000000     0.0413175  
H508     H      0.922080000000     0.772190000000     0.941270000000     0.0779739  
H509     H      0.886630000000     0.791610000000     0.933470000000     0.0664998  
H510     H      0.911490000000     0.806270000000     0.963260000000     0.0805425  
H511     H      0.592300000000     0.775510000000     0.534620000000     0.0311059  
H512     H      0.648210000000     0.775060000000     0.536070000000     0.0359498  
H513     H      0.650280000000     0.717320000000     0.956400000000     0.043023   
H514     H      0.570520000000     0.724510000000     0.937900000000     0.0818158  
H515     H      0.605590000000     0.704440000000     0.929580000000     0.0696179  
H516     H      0.579750000000     0.688880000000     0.958060000000     0.0819622  
H517     H      0.710370000000     0.842960000000     0.965560000000     0.03301    
H518     H      0.709200000000     0.898870000000     0.966290000000     0.0354051  
H519     H      0.788630000000     0.900280000000     0.524380000000     0.0437515  
H520     H      0.806430000000     0.820100000000     0.516850000000     0.0815888  
H521     H      0.815640000000     0.855300000000     0.536260000000     0.0695501  
H522     H      0.786940000000     0.830190000000     0.552630000000     0.0844555  
H523     H      0.783330000000     0.650080000000     0.967940000000     0.0328555  
H524     H      0.785400000000     0.594230000000     0.969340000000     0.0364476  
H525     H      0.704610000000     0.592130000000     0.525520000000     0.0437792  
H526     H      0.685720000000     0.671900000000     0.516790000000     0.0815496  
H527     H      0.676770000000     0.636830000000     0.536560000000     0.0691286  
H528     H      0.704730000000     0.662680000000     0.553050000000     0.0837908  
H529     H      0.719730000000     0.536780000000     0.900510000000     0.0325478  
H530     H      0.720880000000     0.538360000000     0.844370000000     0.036265   
H531     H      0.775120000000     0.956270000000     0.842940000000     0.0396298  
H532     H      0.766670000000     0.938010000000     0.922430000000     0.0812749  
H533     H      0.786780000000     0.929050000000     0.887550000000     0.0674533  
H534     H      0.803130000000     0.956840000000     0.913640000000     0.081327   
H535     H      0.782550000000     0.525440000000     0.650600000000     0.0324757  
H536     H      0.783990000000     0.525410000000     0.594780000000     0.0364155  
H537     H      0.708270000000     0.962650000000     0.592240000000     0.0434352  
H538     H      0.689780000000     0.966730000000     0.672130000000     0.0773727  
H539     H      0.683340000000     0.946300000000     0.636890000000     0.0689233  
H540     H      0.713160000000     0.933270000000     0.662620000000     0.0838871  
H541     H      0.530870000000     0.777650000000     0.901530000000     0.0314053  
H542     H      0.532690000000     0.776660000000     0.845670000000     0.0346669  
H543     H      0.955410000000     0.715840000000     0.843630000000     0.0431639  
H544     H      0.936920000000     0.721400000000     0.923880000000     0.0781931  
H545     H      0.928830000000     0.702320000000     0.888310000000     0.0684529  
H546     H      0.958390000000     0.687050000000     0.913110000000     0.0819854  
H547     H      0.460230000000     0.777000000000     0.594370000000     0.0328296  
H548     H      0.458360000000     0.775750000000     0.650260000000     0.0365558  
H549     H      0.537700000000     0.717540000000     0.652120000000     0.0427532  
H550     H      0.556380000000     0.725580000000     0.572140000000     0.0808192  
H551     H      0.565170000000     0.705910000000     0.607310000000     0.0687235  
H552     H      0.036640000000     0.689830000000     0.581800000000     0.0835684  
H553     H      0.650150000000     0.965670000000     0.784080000000     0.0333445  
H554     H      0.594200000000     0.967130000000     0.786010000000     0.0362853  
H555     H      0.592470000000     0.525250000000     0.706660000000     0.043307   
H556     H      0.672670000000     0.518490000000     0.688420000000     0.0783585  
H557     H      0.637340000000     0.537850000000     0.679770000000     0.0689608  
H558     H      0.662460000000     0.553650000000     0.708800000000     0.0838245  
H559     H      0.842870000000     0.518010000000     0.705030000000     0.0287066  
H560     H      0.898980000000     0.517240000000     0.704040000000     0.0355941  
H561     H      0.900280000000     0.973490000000     0.792240000000     0.0419031  
H562     H      0.827130000000     0.945550000000     0.792450000000     0.0822429  
H563     H      0.855020000000     0.961340000000     0.818800000000     0.0677515  
H564     H      0.821440000000     0.983530000000     0.809090000000     0.078635   
H565     H      0.524320000000     0.842100000000     0.708520000000     0.0330736  
H566     H      0.522990000000     0.898160000000     0.706350000000     0.0362553  
H567     H      0.969330000000     0.900340000000     0.788830000000     0.0427433  
H568     H      0.978130000000     0.820690000000     0.807560000000     0.0804581  
H569     H      0.958600000000     0.855800000000     0.816880000000     0.0680211  
H570     H      0.941470000000     0.829880000000     0.789370000000     0.0833108  
H571     H      0.023960000000     0.649840000000     0.787160000000     0.0331605  
H572     H      0.022610000000     0.593810000000     0.788930000000     0.0368418  
H573     H      0.469550000000     0.592160000000     0.706060000000     0.0439051  
H574     H      0.478800000000     0.671890000000     0.687810000000     0.0819229  
H575     H      0.459450000000     0.636810000000     0.678030000000     0.0698562  
H576     H      0.441880000000     0.662550000000     0.705420000000     0.0845912  
N1       N      0.338910000000     0.246390000000     0.497530000000    -0.171181   
N2       N      0.403170000000     0.247340000000     0.497450000000    -0.192123   
N3       N      0.153100000000     0.246200000000     0.996230000000    -0.173414   
N4       N      0.088850000000     0.245250000000     0.995640000000    -0.194823   
N5       N      0.248770000000     0.403450000000     0.495590000000    -0.170551   
N6       N      0.249030000000     0.339170000000     0.496170000000    -0.192055   
N7       N      0.245150000000     0.089320000000     0.997660000000    -0.172055   
N8       N      0.243830000000     0.153560000000     0.997480000000    -0.194863   
N9       N      0.247950000000     0.497280000000     0.339860000000    -0.170775   
N10      N      0.248310000000     0.496590000000     0.404050000000    -0.19209    
N11      N      0.246060000000     0.994130000000     0.089700000000    -0.17152    
N12      N      0.245720000000     0.992570000000     0.153950000000    -0.1941     
N13      N      0.494130000000     0.246130000000     0.340840000000    -0.171093   
N14      N      0.493170000000     0.245810000000     0.405130000000    -0.192498   
N15      N      0.997900000000     0.246440000000     0.155030000000    -0.172042   
N16      N      0.998950000000     0.246450000000     0.090800000000    -0.193207   
N17      N      0.089550000000     0.496300000000     0.246390000000    -0.170222   
N18      N      0.153770000000     0.496280000000     0.245410000000    -0.192241   
N19      N      0.403460000000     0.995320000000     0.248160000000    -0.172688   
N20      N      0.339390000000     0.994260000000     0.248160000000    -0.194788   
N21      N      0.996090000000     0.403060000000     0.247520000000    -0.172465   
N22      N      0.996020000000     0.338890000000     0.248930000000    -0.193597   
N23      N      0.495960000000     0.089130000000     0.247570000000    -0.169747   
N24      N      0.495980000000     0.153370000000     0.246550000000    -0.192074   
N25      N      0.338910000000     0.246390000000     0.997530000000    -0.173918   
N26      N      0.403170000000     0.247340000000     0.997450000000    -0.194462   
N27      N      0.153100000000     0.246200000000     0.496230000000    -0.170678   
N28      N      0.088850000000     0.245250000000     0.495640000000    -0.19245    
N29      N      0.248770000000     0.403450000000     0.995590000000    -0.172936   
N30      N      0.249030000000     0.339170000000     0.996170000000    -0.194836   
N31      N      0.245150000000     0.089320000000     0.497660000000    -0.169638   
N32      N      0.243830000000     0.153560000000     0.497480000000    -0.192102   
N33      N      0.247950000000     0.497280000000     0.839860000000    -0.170797   
N34      N      0.248310000000     0.496590000000     0.904050000000    -0.192065   
N35      N      0.246060000000     0.994130000000     0.589710000000    -0.172043   
N36      N      0.245720000000     0.992570000000     0.653950000000    -0.194084   
N37      N      0.494130000000     0.246130000000     0.840840000000    -0.171112   
N38      N      0.493170000000     0.245810000000     0.905130000000    -0.19239    
N39      N      0.997900000000     0.246440000000     0.655030000000    -0.172084   
N40      N      0.998950000000     0.246450000000     0.590800000000    -0.193675   
N41      N      0.089550000000     0.496300000000     0.746390000000    -0.170267   
N42      N      0.153770000000     0.496280000000     0.745410000000    -0.19223    
N43      N      0.403460000000     0.995320000000     0.748160000000    -0.172731   
N44      N      0.339390000000     0.994260000000     0.748160000000    -0.19479    
N45      N      0.996090000000     0.403060000000     0.747520000000    -0.172528   
N46      N      0.996020000000     0.338890000000     0.748930000000    -0.193606   
N47      N      0.495960000000     0.089130000000     0.747570000000    -0.169788   
N48      N      0.495980000000     0.153370000000     0.746550000000    -0.192045   
N49      N      0.338910000000     0.746390000000     0.497530000000    -0.171201   
N50      N      0.403170000000     0.747330000000     0.497450000000    -0.192143   
N51      N      0.153100000000     0.746200000000     0.996230000000    -0.173424   
N52      N      0.088850000000     0.745250000000     0.995640000000    -0.19487    
N53      N      0.248770000000     0.903450000000     0.495590000000    -0.170507   
N54      N      0.249030000000     0.839170000000     0.496170000000    -0.192044   
N55      N      0.245150000000     0.589320000000     0.997660000000    -0.172484   
N56      N      0.243830000000     0.653560000000     0.997480000000    -0.194864   
N57      N      0.247950000000     0.997290000000     0.339860000000    -0.172701   
N58      N      0.248310000000     0.996590000000     0.404050000000    -0.19372    
N59      N      0.246060000000     0.494130000000     0.089700000000    -0.169778   
N60      N      0.245720000000     0.492570000000     0.153950000000    -0.192232   
N61      N      0.494130000000     0.746130000000     0.340840000000    -0.171091   
N62      N      0.493170000000     0.745810000000     0.405130000000    -0.19251    
N63      N      0.997900000000     0.746440000000     0.155030000000    -0.172059   
N64      N      0.998950000000     0.746450000000     0.090800000000    -0.193219   
N65      N      0.089550000000     0.996300000000     0.246390000000    -0.173001   
N66      N      0.153770000000     0.996280000000     0.245410000000    -0.194146   
N67      N      0.403460000000     0.495320000000     0.248160000000    -0.169878   
N68      N      0.339390000000     0.494260000000     0.248160000000    -0.193      
N69      N      0.996090000000     0.903060000000     0.247520000000    -0.172454   
N70      N      0.996020000000     0.838890000000     0.248930000000    -0.193596   
N71      N      0.495960000000     0.589130000000     0.247570000000    -0.170127   
N72      N      0.495980000000     0.653370000000     0.246550000000    -0.192085   
N73      N      0.338910000000     0.746390000000     0.997530000000    -0.17394    
N74      N      0.403170000000     0.747330000000     0.997450000000    -0.194485   
N75      N      0.153100000000     0.746200000000     0.496230000000    -0.170686   
N76      N      0.088850000000     0.745250000000     0.495640000000    -0.192494   
N77      N      0.248770000000     0.903450000000     0.995590000000    -0.172892   
N78      N      0.249030000000     0.839170000000     0.996170000000    -0.194824   
N79      N      0.245150000000     0.589320000000     0.497660000000    -0.170063   
N80      N      0.243830000000     0.653560000000     0.497480000000    -0.192097   
N81      N      0.247950000000     0.997290000000     0.839860000000    -0.172722   
N82      N      0.248310000000     0.996590000000     0.904050000000    -0.193694   
N83      N      0.246060000000     0.494130000000     0.589710000000    -0.170296   
N84      N      0.245720000000     0.492570000000     0.653950000000    -0.192212   
N85      N      0.494130000000     0.746130000000     0.840840000000    -0.171111   
N86      N      0.493170000000     0.745810000000     0.905130000000    -0.192402   
N87      N      0.997900000000     0.746440000000     0.655030000000    -0.1721     
N88      N      0.998950000000     0.746450000000     0.590800000000    -0.193688   
N89      N      0.089550000000     0.996300000000     0.746390000000    -0.173049   
N90      N      0.153770000000     0.996280000000     0.745410000000    -0.194138   
N91      N      0.403460000000     0.495320000000     0.748160000000    -0.169918   
N92      N      0.339390000000     0.494260000000     0.748160000000    -0.192999   
N93      N      0.996090000000     0.903060000000     0.747520000000    -0.172518   
N94      N      0.996020000000     0.838890000000     0.748930000000    -0.193605   
N95      N      0.495960000000     0.589130000000     0.747570000000    -0.170169   
N96      N      0.495980000000     0.653370000000     0.746550000000    -0.192056   
N97      N      0.838910000000     0.246390000000     0.497530000000    -0.171195   
N98      N      0.903170000000     0.247340000000     0.497450000000    -0.192085   
N99      N      0.653100000000     0.246200000000     0.996230000000    -0.17345    
N100     N      0.588850000000     0.245250000000     0.995640000000    -0.195065   
N101     N      0.748770000000     0.403450000000     0.495590000000    -0.170574   
N102     N      0.749030000000     0.339170000000     0.496170000000    -0.192055   
N103     N      0.745150000000     0.089320000000     0.997660000000    -0.172072   
N104     N      0.743830000000     0.153560000000     0.997480000000    -0.194895   
N105     N      0.747950000000     0.497280000000     0.339860000000    -0.170786   
N106     N      0.748310000000     0.496590000000     0.404050000000    -0.192154   
N107     N      0.746060000000     0.994130000000     0.089700000000    -0.171539   
N108     N      0.745720000000     0.992570000000     0.153950000000    -0.194123   
N109     N      0.994130000000     0.246130000000     0.340840000000    -0.172542   
N110     N      0.993170000000     0.245810000000     0.405130000000    -0.194633   
N111     N      0.497900000000     0.246440000000     0.155030000000    -0.170526   
N112     N      0.498950000000     0.246450000000     0.090800000000    -0.191821   
N113     N      0.589550000000     0.496300000000     0.246390000000    -0.170527   
N114     N      0.653780000000     0.496280000000     0.245410000000    -0.192305   
N115     N      0.903460000000     0.995320000000     0.248160000000    -0.172677   
N116     N      0.839390000000     0.994260000000     0.248160000000    -0.194718   
N117     N      0.496090000000     0.403060000000     0.247520000000    -0.170252   
N118     N      0.496010000000     0.338890000000     0.248930000000    -0.192204   
N119     N      0.995960000000     0.089130000000     0.247570000000    -0.171959   
N120     N      0.995980000000     0.153370000000     0.246550000000    -0.193465   
N121     N      0.838910000000     0.246390000000     0.997530000000    -0.17393    
N122     N      0.903170000000     0.247340000000     0.997450000000    -0.194422   
N123     N      0.653100000000     0.246200000000     0.496230000000    -0.170709   
N124     N      0.588850000000     0.245250000000     0.495640000000    -0.192688   
N125     N      0.748770000000     0.403450000000     0.995590000000    -0.17296    
N126     N      0.749030000000     0.339170000000     0.996170000000    -0.194837   
N127     N      0.745150000000     0.089320000000     0.497660000000    -0.169654   
N128     N      0.743830000000     0.153560000000     0.497480000000    -0.192132   
N129     N      0.747950000000     0.497280000000     0.839860000000    -0.170808   
N130     N      0.748310000000     0.496590000000     0.904050000000    -0.192129   
N131     N      0.746060000000     0.994130000000     0.589710000000    -0.172062   
N132     N      0.745720000000     0.992570000000     0.653950000000    -0.194107   
N133     N      0.994130000000     0.246130000000     0.840840000000    -0.17256    
N134     N      0.993170000000     0.245810000000     0.905130000000    -0.194524   
N135     N      0.497900000000     0.246440000000     0.655030000000    -0.170564   
N136     N      0.498950000000     0.246450000000     0.590800000000    -0.192287   
N137     N      0.589550000000     0.496300000000     0.746390000000    -0.170572   
N138     N      0.653780000000     0.496280000000     0.745410000000    -0.192294   
N139     N      0.903460000000     0.995320000000     0.748160000000    -0.172721   
N140     N      0.839390000000     0.994260000000     0.748160000000    -0.19472    
N141     N      0.496090000000     0.403060000000     0.747520000000    -0.170315   
N142     N      0.496010000000     0.338890000000     0.748930000000    -0.192212   
N143     N      0.995960000000     0.089130000000     0.747570000000    -0.172001   
N144     N      0.995980000000     0.153370000000     0.746550000000    -0.193437   
N145     N      0.838910000000     0.746390000000     0.497530000000    -0.171215   
N146     N      0.903170000000     0.747330000000     0.497450000000    -0.192105   
N147     N      0.653100000000     0.746200000000     0.996230000000    -0.17346    
N148     N      0.588850000000     0.745250000000     0.995640000000    -0.195111   
N149     N      0.748770000000     0.903450000000     0.495590000000    -0.17053    
N150     N      0.749030000000     0.839170000000     0.496170000000    -0.192044   
N151     N      0.745150000000     0.589320000000     0.997660000000    -0.172502   
N152     N      0.743830000000     0.653560000000     0.997480000000    -0.194896   
N153     N      0.747950000000     0.997290000000     0.339860000000    -0.172714   
N154     N      0.748310000000     0.996590000000     0.404050000000    -0.193786   
N155     N      0.746060000000     0.494130000000     0.089700000000    -0.169796   
N156     N      0.745720000000     0.492570000000     0.153950000000    -0.192252   
N157     N      0.994130000000     0.746130000000     0.340840000000    -0.172541   
N158     N      0.993170000000     0.745810000000     0.405130000000    -0.194648   
N159     N      0.497900000000     0.746440000000     0.155030000000    -0.17054    
N160     N      0.498950000000     0.746450000000     0.090800000000    -0.191831   
N161     N      0.589550000000     0.996300000000     0.246390000000    -0.173314   
N162     N      0.653780000000     0.996280000000     0.245410000000    -0.194212   
N163     N      0.903460000000     0.495320000000     0.248160000000    -0.169868   
N164     N      0.839390000000     0.494260000000     0.248160000000    -0.192929   
N165     N      0.496090000000     0.903060000000     0.247520000000    -0.170242   
N166     N      0.496010000000     0.838890000000     0.248930000000    -0.192202   
N167     N      0.995960000000     0.589130000000     0.247570000000    -0.172346   
N168     N      0.995980000000     0.653370000000     0.246550000000    -0.19348    
N169     N      0.838910000000     0.746390000000     0.997530000000    -0.173952   
N170     N      0.903170000000     0.747330000000     0.997450000000    -0.194446   
N171     N      0.653100000000     0.746200000000     0.496230000000    -0.170717   
N172     N      0.588850000000     0.745250000000     0.495640000000    -0.192732   
N173     N      0.748770000000     0.903450000000     0.995590000000    -0.172915   
N174     N      0.749030000000     0.839170000000     0.996170000000    -0.194825   
N175     N      0.745150000000     0.589320000000     0.497660000000    -0.17008    
N176     N      0.743830000000     0.653560000000     0.497480000000    -0.192127   
N177     N      0.747950000000     0.997290000000     0.839860000000    -0.172735   
N178     N      0.748310000000     0.996590000000     0.904050000000    -0.193759   
N179     N      0.746060000000     0.494130000000     0.589710000000    -0.170313   
N180     N      0.745720000000     0.492570000000     0.653950000000    -0.192232   
N181     N      0.994130000000     0.746130000000     0.840840000000    -0.17256    
N182     N      0.993170000000     0.745810000000     0.905130000000    -0.194539   
N183     N      0.497900000000     0.746440000000     0.655030000000    -0.170579   
N184     N      0.498950000000     0.746450000000     0.590800000000    -0.192299   
N185     N      0.589550000000     0.996300000000     0.746390000000    -0.173362   
N186     N      0.653780000000     0.996280000000     0.745410000000    -0.194204   
N187     N      0.903460000000     0.495320000000     0.748160000000    -0.169908   
N188     N      0.839390000000     0.494260000000     0.748160000000    -0.192928   
N189     N      0.496090000000     0.903060000000     0.747520000000    -0.170304   
N190     N      0.496010000000     0.838890000000     0.748930000000    -0.19221    
N191     N      0.995960000000     0.589130000000     0.747570000000    -0.172388   
N192     N      0.995980000000     0.653370000000     0.746550000000    -0.193451   
O1       O      0.493540000000     0.042970000000     0.222000000000    -0.393526   
O2       O      0.498980000000     0.449420000000     0.221690000000    -0.392973   
O3       O      0.449510000000     0.494910000000     0.222070000000    -0.395407   
O4       O      0.043000000000     0.999260000000     0.221420000000    -0.394453   
O5       O      0.043600000000     0.993120000000     0.272580000000    -0.391838   
O6       O      0.449920000000     0.496820000000     0.273600000000    -0.394914   
O7       O      0.994240000000     0.449210000000     0.273010000000    -0.39846    
O8       O      0.999210000000     0.042700000000     0.273220000000    -0.390328   
O9       O      0.470710000000     0.199670000000     0.242710000000    -0.400074   
O10      O      0.470580000000     0.292680000000     0.252120000000    -0.400418   
O11      O      0.471570000000     0.250820000000     0.200820000000    -0.395776   
O12      O      0.469760000000     0.241540000000     0.294030000000    -0.396388   
O13      O      0.020450000000     0.250660000000     0.295090000000    -0.390831   
O14      O      0.022270000000     0.241750000000     0.201840000000    -0.391109   
O15      O      0.021470000000     0.292830000000     0.243960000000    -0.390792   
O16      O      0.021230000000     0.199440000000     0.252870000000    -0.390761   
O17      O      0.293210000000     0.468810000000     0.246890000000    -0.398858   
O18      O      0.199550000000     0.470270000000     0.250370000000    -0.397782   
O19      O      0.243760000000     0.468140000000     0.201060000000    -0.399838   
O20      O      0.249010000000     0.470760000000     0.294340000000    -0.400746   
O21      O      0.244600000000     0.022090000000     0.292930000000    -0.387717   
O22      O      0.249480000000     0.019330000000     0.199250000000    -0.394717   
O23      O      0.200340000000     0.021290000000     0.243110000000    -0.396119   
O24      O      0.293780000000     0.020460000000     0.247190000000    -0.392035   
O25      O      0.271750000000     0.000480000000     0.043860000000    -0.380328   
O26      O      0.273170000000     0.993210000000     0.450600000000    -0.399022   
O27      O      0.271600000000     0.043580000000     0.493490000000    -0.390174   
O28      O      0.273230000000     0.450190000000     0.000820000000    -0.38406    
O29      O      0.222640000000     0.449350000000     0.991190000000    -0.392021   
O30      O      0.220740000000     0.042460000000     0.501600000000    -0.390164   
O31      O      0.222260000000     0.501200000000     0.449830000000    -0.394535   
O32      O      0.221210000000     0.490510000000     0.043020000000    -0.387876   
O33      O      0.001070000000     0.220850000000     0.044550000000    -0.387927   
O34      O      0.990370000000     0.220580000000     0.451630000000    -0.401642   
O35      O      0.042240000000     0.220190000000     0.492800000000    -0.397799   
O36      O      0.449050000000     0.221500000000     0.003120000000    -0.38399    
O37      O      0.449820000000     0.272250000000     0.994460000000    -0.399074   
O38      O      0.043070000000     0.270990000000     0.501330000000    -0.393852   
O39      O      0.499630000000     0.271230000000     0.451150000000    -0.397858   
O40      O      0.493120000000     0.271750000000     0.044710000000    -0.389434   
O41      O      0.240670000000     0.200000000000     0.022650000000    -0.392809   
O42      O      0.251120000000     0.293010000000     0.022050000000    -0.392347   
O43      O      0.199200000000     0.251400000000     0.021950000000    -0.388446   
O44      O      0.292520000000     0.241480000000     0.022720000000    -0.387981   
O45      O      0.292770000000     0.250230000000     0.471950000000    -0.396971   
O46      O      0.199620000000     0.242210000000     0.471270000000    -0.39602    
O47      O      0.242480000000     0.292940000000     0.471260000000    -0.395684   
O48      O      0.250010000000     0.199500000000     0.471990000000    -0.395574   
O49      O      0.493540000000     0.042970000000     0.722000000000    -0.393654   
O50      O      0.498980000000     0.449420000000     0.721700000000    -0.393281   
O51      O      0.449510000000     0.494910000000     0.722070000000    -0.395558   
O52      O      0.043000000000     0.999260000000     0.721420000000    -0.394593   
O53      O      0.043600000000     0.993120000000     0.772580000000    -0.391935   
O54      O      0.449920000000     0.496820000000     0.773600000000    -0.395007   
O55      O      0.994240000000     0.449210000000     0.773010000000    -0.398604   
O56      O      0.999210000000     0.042700000000     0.773220000000    -0.390425   
O57      O      0.470710000000     0.199670000000     0.742710000000    -0.40008    
O58      O      0.470580000000     0.292680000000     0.752120000000    -0.400438   
O59      O      0.471570000000     0.250820000000     0.700820000000    -0.395834   
O60      O      0.469760000000     0.241540000000     0.794030000000    -0.396394   
O61      O      0.020450000000     0.250660000000     0.795090000000    -0.390848   
O62      O      0.022270000000     0.241750000000     0.701840000000    -0.391146   
O63      O      0.021470000000     0.292830000000     0.743960000000    -0.390822   
O64      O      0.021230000000     0.199440000000     0.752870000000    -0.390777   
O65      O      0.293210000000     0.468810000000     0.746890000000    -0.39889    
O66      O      0.199550000000     0.470270000000     0.750370000000    -0.397802   
O67      O      0.243760000000     0.468140000000     0.701060000000    -0.399877   
O68      O      0.249010000000     0.470760000000     0.794340000000    -0.400756   
O69      O      0.244600000000     0.022090000000     0.792930000000    -0.387729   
O70      O      0.249480000000     0.019330000000     0.699250000000    -0.394772   
O71      O      0.200340000000     0.021290000000     0.743110000000    -0.396124   
O72      O      0.293780000000     0.020460000000     0.747200000000    -0.392059   
O73      O      0.271750000000     0.000480000000     0.543860000000    -0.385997   
O74      O      0.273170000000     0.993210000000     0.950600000000    -0.397872   
O75      O      0.271600000000     0.043580000000     0.993490000000    -0.387829   
O76      O      0.273230000000     0.450190000000     0.500820000000    -0.396337   
O77      O      0.222640000000     0.449350000000     0.491190000000    -0.39441    
O78      O      0.220740000000     0.042460000000     0.001600000000    -0.377991   
O79      O      0.222260000000     0.501200000000     0.949830000000    -0.393494   
O80      O      0.221210000000     0.490510000000     0.543020000000    -0.393576   
O81      O      0.001070000000     0.220850000000     0.544550000000    -0.393448   
O82      O      0.990370000000     0.220580000000     0.951630000000    -0.400516   
O83      O      0.042240000000     0.220190000000     0.992800000000    -0.395521   
O84      O      0.449050000000     0.221500000000     0.503120000000    -0.396336   
O85      O      0.449820000000     0.272250000000     0.494460000000    -0.401457   
O86      O      0.043070000000     0.270990000000     0.001330000000    -0.381519   
O87      O      0.499630000000     0.271230000000     0.951150000000    -0.396796   
O88      O      0.493120000000     0.271750000000     0.544710000000    -0.395131   
O89      O      0.240670000000     0.200000000000     0.522650000000    -0.399483   
O90      O      0.251120000000     0.293010000000     0.522050000000    -0.399033   
O91      O      0.199200000000     0.251400000000     0.521950000000    -0.395217   
O92      O      0.292520000000     0.241480000000     0.522720000000    -0.394769   
O93      O      0.292770000000     0.250230000000     0.971950000000    -0.395023   
O94      O      0.199620000000     0.242210000000     0.971270000000    -0.394085   
O95      O      0.242480000000     0.292940000000     0.971260000000    -0.393731   
O96      O      0.250010000000     0.199500000000     0.971990000000    -0.393633   
O97      O      0.493540000000     0.542970000000     0.222000000000    -0.397443   
O98      O      0.498980000000     0.949420000000     0.221690000000    -0.392478   
O99      O      0.449510000000     0.994920000000     0.222070000000    -0.396666   
O100     O      0.043000000000     0.499270000000     0.221420000000    -0.393065   
O101     O      0.043600000000     0.493120000000     0.272580000000    -0.391308   
O102     O      0.449920000000     0.996820000000     0.273600000000    -0.395532   
O103     O      0.994240000000     0.949210000000     0.273010000000    -0.397845   
O104     O      0.999210000000     0.542700000000     0.273220000000    -0.394361   
O105     O      0.470710000000     0.699670000000     0.242710000000    -0.400213   
O106     O      0.470580000000     0.792680000000     0.252120000000    -0.400337   
O107     O      0.471570000000     0.750820000000     0.200820000000    -0.395786   
O108     O      0.469760000000     0.741540000000     0.294030000000    -0.396429   
O109     O      0.020450000000     0.750660000000     0.295090000000    -0.39085    
O110     O      0.022270000000     0.741750000000     0.201840000000    -0.391124   
O111     O      0.021470000000     0.792830000000     0.243960000000    -0.390786   
O112     O      0.021230000000     0.699440000000     0.252870000000    -0.390825   
O113     O      0.293210000000     0.968810000000     0.246890000000    -0.397466   
O114     O      0.199550000000     0.970270000000     0.250370000000    -0.396343   
O115     O      0.243760000000     0.968140000000     0.201060000000    -0.398451   
O116     O      0.249010000000     0.970760000000     0.294340000000    -0.399195   
O117     O      0.244600000000     0.522090000000     0.292930000000    -0.392747   
O118     O      0.249480000000     0.519330000000     0.199250000000    -0.399414   
O119     O      0.200340000000     0.521290000000     0.243110000000    -0.400888   
O120     O      0.293780000000     0.520460000000     0.247190000000    -0.397053   
O121     O      0.271750000000     0.500480000000     0.043860000000    -0.389008   
O122     O      0.273170000000     0.493210000000     0.450600000000    -0.400764   
O123     O      0.271600000000     0.543580000000     0.493490000000    -0.394262   
O124     O      0.273230000000     0.950190000000     0.000820000000    -0.383347   
O125     O      0.222640000000     0.949350000000     0.991190000000    -0.391294   
O126     O      0.220740000000     0.542460000000     0.501600000000    -0.394251   
O127     O      0.222260000000     0.001200000000     0.449830000000    -0.385709   
O128     O      0.221210000000     0.990510000000     0.043020000000    -0.386218   
O129     O      0.001070000000     0.720850000000     0.044550000000    -0.38799    
O130     O      0.990370000000     0.720580000000     0.451630000000    -0.401728   
O131     O      0.042240000000     0.720190000000     0.492800000000    -0.397876   
O132     O      0.449050000000     0.721500000000     0.003120000000    -0.384078   
O133     O      0.449820000000     0.772250000000     0.994460000000    -0.399128   
O134     O      0.043070000000     0.770990000000     0.501330000000    -0.393915   
O135     O      0.499630000000     0.771230000000     0.451150000000    -0.397909   
O136     O      0.493120000000     0.771750000000     0.044710000000    -0.389502   
O137     O      0.240670000000     0.700000000000     0.022650000000    -0.39285    
O138     O      0.251120000000     0.793010000000     0.022050000000    -0.392332   
O139     O      0.199200000000     0.751400000000     0.021950000000    -0.388458   
O140     O      0.292520000000     0.741490000000     0.022720000000    -0.388038   
O141     O      0.292770000000     0.750230000000     0.471950000000    -0.396997   
O142     O      0.199620000000     0.742210000000     0.471270000000    -0.396054   
O143     O      0.242480000000     0.792940000000     0.471260000000    -0.395598   
O144     O      0.250010000000     0.699500000000     0.471990000000    -0.395733   
O145     O      0.493540000000     0.542970000000     0.722000000000    -0.397578   
O146     O      0.498980000000     0.949420000000     0.721700000000    -0.392785   
O147     O      0.449510000000     0.994920000000     0.722070000000    -0.396818   
O148     O      0.043000000000     0.499270000000     0.721420000000    -0.393203   
O149     O      0.043600000000     0.493120000000     0.772580000000    -0.391405   
O150     O      0.449920000000     0.996820000000     0.773600000000    -0.395624   
O151     O      0.994240000000     0.949210000000     0.773010000000    -0.397988   
O152     O      0.999210000000     0.542700000000     0.773220000000    -0.394461   
O153     O      0.470710000000     0.699670000000     0.742710000000    -0.400218   
O154     O      0.470580000000     0.792680000000     0.752120000000    -0.400357   
O155     O      0.471570000000     0.750820000000     0.700820000000    -0.395844   
O156     O      0.469760000000     0.741540000000     0.794030000000    -0.396435   
O157     O      0.020450000000     0.750660000000     0.795090000000    -0.390867   
O158     O      0.022270000000     0.741750000000     0.701840000000    -0.391161   
O159     O      0.021470000000     0.792830000000     0.743960000000    -0.390816   
O160     O      0.021230000000     0.699440000000     0.752870000000    -0.390841   
O161     O      0.293210000000     0.968810000000     0.746890000000    -0.397498   
O162     O      0.199550000000     0.970270000000     0.750370000000    -0.396362   
O163     O      0.243760000000     0.968140000000     0.701060000000    -0.398487   
O164     O      0.249010000000     0.970760000000     0.794340000000    -0.399204   
O165     O      0.244600000000     0.522090000000     0.792930000000    -0.392761   
O166     O      0.249480000000     0.519330000000     0.699250000000    -0.399479   
O167     O      0.200340000000     0.521290000000     0.743110000000    -0.400899   
O168     O      0.293780000000     0.520460000000     0.747200000000    -0.397083   
O169     O      0.271750000000     0.500480000000     0.543860000000    -0.394724   
O170     O      0.273170000000     0.493210000000     0.950600000000    -0.399607   
O171     O      0.271600000000     0.543580000000     0.993490000000    -0.391903   
O172     O      0.273230000000     0.950190000000     0.500820000000    -0.395607   
O173     O      0.222640000000     0.949350000000     0.491190000000    -0.393676   
O174     O      0.220740000000     0.542460000000     0.001600000000    -0.382026   
O175     O      0.222260000000     0.001200000000     0.949830000000    -0.38468    
O176     O      0.221210000000     0.990510000000     0.543020000000    -0.391901   
O177     O      0.001070000000     0.720850000000     0.544550000000    -0.393518   
O178     O      0.990370000000     0.720580000000     0.951630000000    -0.400601   
O179     O      0.042240000000     0.720190000000     0.992800000000    -0.395596   
O180     O      0.449050000000     0.721500000000     0.503120000000    -0.396439   
O181     O      0.449820000000     0.772250000000     0.494460000000    -0.401514   
O182     O      0.043070000000     0.770990000000     0.001330000000    -0.381572   
O183     O      0.499630000000     0.771230000000     0.951150000000    -0.396846   
O184     O      0.493120000000     0.771750000000     0.544710000000    -0.395203   
O185     O      0.240670000000     0.700000000000     0.522650000000    -0.399535   
O186     O      0.251120000000     0.793010000000     0.522050000000    -0.399019   
O187     O      0.199200000000     0.751400000000     0.521950000000    -0.395234   
O188     O      0.292520000000     0.741490000000     0.522720000000    -0.394833   
O189     O      0.292770000000     0.750230000000     0.971950000000    -0.395047   
O190     O      0.199620000000     0.742210000000     0.971270000000    -0.394118   
O191     O      0.242480000000     0.792940000000     0.971260000000    -0.393645   
O192     O      0.250010000000     0.699500000000     0.971990000000    -0.393789   
O193     O      0.993530000000     0.042970000000     0.222000000000    -0.393894   
O194     O      0.998990000000     0.449420000000     0.221690000000    -0.394008   
O195     O      0.949510000000     0.494910000000     0.222070000000    -0.394962   
O196     O      0.543000000000     0.999260000000     0.221420000000    -0.397603   
O197     O      0.543600000000     0.993120000000     0.272580000000    -0.394983   
O198     O      0.949920000000     0.496820000000     0.273600000000    -0.394473   
O199     O      0.494240000000     0.449210000000     0.273010000000    -0.398082   
O200     O      0.499210000000     0.042700000000     0.273220000000    -0.389268   
O201     O      0.970710000000     0.199670000000     0.242710000000    -0.398884   
O202     O      0.970580000000     0.292680000000     0.252120000000    -0.399239   
O203     O      0.971570000000     0.250820000000     0.200820000000    -0.394661   
O204     O      0.969760000000     0.241540000000     0.294030000000    -0.39525    
O205     O      0.520450000000     0.250660000000     0.295090000000    -0.394715   
O206     O      0.522270000000     0.241750000000     0.201840000000    -0.39496    
O207     O      0.521470000000     0.292830000000     0.243960000000    -0.394693   
O208     O      0.521230000000     0.199440000000     0.252870000000    -0.394641   
O209     O      0.793210000000     0.468810000000     0.246890000000    -0.398944   
O210     O      0.699550000000     0.470270000000     0.250370000000    -0.397863   
O211     O      0.743760000000     0.468140000000     0.201060000000    -0.399849   
O212     O      0.749010000000     0.470760000000     0.294340000000    -0.400767   
O213     O      0.744600000000     0.022090000000     0.292930000000    -0.387736   
O214     O      0.749480000000     0.019330000000     0.199250000000    -0.394724   
O215     O      0.700340000000     0.021290000000     0.243110000000    -0.396172   
O216     O      0.793780000000     0.020460000000     0.247190000000    -0.392117   
O217     O      0.771750000000     0.000480000000     0.043860000000    -0.38037    
O218     O      0.773160000000     0.993210000000     0.450600000000    -0.399209   
O219     O      0.771600000000     0.043580000000     0.493490000000    -0.39022    
O220     O      0.773230000000     0.450190000000     0.000820000000    -0.3841     
O221     O      0.722640000000     0.449350000000     0.991190000000    -0.392113   
O222     O      0.720740000000     0.042460000000     0.501600000000    -0.390245   
O223     O      0.722260000000     0.501200000000     0.449830000000    -0.39469    
O224     O      0.721210000000     0.490510000000     0.043020000000    -0.387963   
O225     O      0.501070000000     0.220850000000     0.044550000000    -0.394667   
O226     O      0.490370000000     0.220580000000     0.451630000000    -0.401779   
O227     O      0.542240000000     0.220190000000     0.492800000000    -0.400926   
O228     O      0.949050000000     0.221500000000     0.003120000000    -0.383446   
O229     O      0.949820000000     0.272250000000     0.994460000000    -0.398681   
O230     O      0.543070000000     0.270990000000     0.501330000000    -0.397046   
O231     O      0.999630000000     0.271230000000     0.451150000000    -0.398801   
O232     O      0.993120000000     0.271750000000     0.044710000000    -0.38869    
O233     O      0.740680000000     0.200000000000     0.022650000000    -0.392842   
O234     O      0.751120000000     0.293010000000     0.022050000000    -0.392358   
O235     O      0.699200000000     0.251400000000     0.021950000000    -0.388484   
O236     O      0.792520000000     0.241480000000     0.022720000000    -0.388007   
O237     O      0.792780000000     0.250230000000     0.471950000000    -0.396937   
O238     O      0.699620000000     0.242210000000     0.471270000000    -0.396049   
O239     O      0.742480000000     0.292940000000     0.471260000000    -0.395718   
O240     O      0.750010000000     0.199500000000     0.471990000000    -0.395589   
O241     O      0.993530000000     0.042970000000     0.722000000000    -0.394023   
O242     O      0.998990000000     0.449420000000     0.721700000000    -0.394316   
O243     O      0.949510000000     0.494910000000     0.722070000000    -0.395112   
O244     O      0.543000000000     0.999260000000     0.721420000000    -0.397747   
O245     O      0.543600000000     0.993120000000     0.772580000000    -0.395081   
O246     O      0.949920000000     0.496820000000     0.773600000000    -0.394565   
O247     O      0.494240000000     0.449210000000     0.773010000000    -0.398227   
O248     O      0.499210000000     0.042700000000     0.773220000000    -0.389365   
O249     O      0.970710000000     0.199670000000     0.742710000000    -0.398889   
O250     O      0.970580000000     0.292680000000     0.752120000000    -0.399258   
O251     O      0.971570000000     0.250820000000     0.700820000000    -0.394718   
O252     O      0.969760000000     0.241540000000     0.794030000000    -0.395256   
O253     O      0.520450000000     0.250660000000     0.795090000000    -0.394733   
O254     O      0.522270000000     0.241750000000     0.701840000000    -0.395003   
O255     O      0.521470000000     0.292830000000     0.743960000000    -0.394727   
O256     O      0.521230000000     0.199440000000     0.752870000000    -0.394661   
O257     O      0.793210000000     0.468810000000     0.746890000000    -0.398976   
O258     O      0.699550000000     0.470270000000     0.750370000000    -0.397883   
O259     O      0.743760000000     0.468140000000     0.701060000000    -0.399887   
O260     O      0.749010000000     0.470760000000     0.794340000000    -0.400777   
O261     O      0.744600000000     0.022090000000     0.792930000000    -0.387748   
O262     O      0.749480000000     0.019330000000     0.699250000000    -0.394779   
O263     O      0.700340000000     0.021290000000     0.743110000000    -0.396177   
O264     O      0.793780000000     0.020460000000     0.747200000000    -0.392141   
O265     O      0.771750000000     0.000480000000     0.543860000000    -0.38604    
O266     O      0.773160000000     0.993210000000     0.950600000000    -0.398059   
O267     O      0.771600000000     0.043580000000     0.993490000000    -0.387873   
O268     O      0.773230000000     0.450190000000     0.500820000000    -0.396382   
O269     O      0.722640000000     0.449350000000     0.491190000000    -0.394502   
O270     O      0.720740000000     0.042460000000     0.001600000000    -0.37806    
O271     O      0.722260000000     0.501200000000     0.949830000000    -0.393649   
O272     O      0.721210000000     0.490510000000     0.543020000000    -0.393668   
O273     O      0.501070000000     0.220850000000     0.544550000000    -0.400228   
O274     O      0.490370000000     0.220580000000     0.951630000000    -0.400648   
O275     O      0.542240000000     0.220190000000     0.992800000000    -0.398635   
O276     O      0.949050000000     0.221500000000     0.503120000000    -0.39577    
O277     O      0.949820000000     0.272250000000     0.494460000000    -0.401058   
O278     O      0.543070000000     0.270990000000     0.001330000000    -0.384664   
O279     O      0.999630000000     0.271230000000     0.951150000000    -0.397741   
O280     O      0.993120000000     0.271750000000     0.544710000000    -0.394371   
O281     O      0.740680000000     0.200000000000     0.522650000000    -0.399521   
O282     O      0.751120000000     0.293010000000     0.522050000000    -0.399047   
O283     O      0.699200000000     0.251400000000     0.521950000000    -0.395264   
O284     O      0.792520000000     0.241480000000     0.522720000000    -0.394795   
O285     O      0.792780000000     0.250230000000     0.971950000000    -0.394988   
O286     O      0.699620000000     0.242210000000     0.971270000000    -0.394112   
O287     O      0.742480000000     0.292940000000     0.971260000000    -0.393765   
O288     O      0.750010000000     0.199500000000     0.971990000000    -0.393647   
O289     O      0.993530000000     0.542970000000     0.222000000000    -0.397807   
O290     O      0.998990000000     0.949420000000     0.221690000000    -0.393513   
O291     O      0.949510000000     0.994920000000     0.222070000000    -0.396221   
O292     O      0.543000000000     0.499270000000     0.221420000000    -0.396213   
O293     O      0.543600000000     0.493120000000     0.272580000000    -0.394454   
O294     O      0.949920000000     0.996820000000     0.273600000000    -0.39509    
O295     O      0.494240000000     0.949210000000     0.273010000000    -0.397467   
O296     O      0.499210000000     0.542700000000     0.273220000000    -0.393303   
O297     O      0.970710000000     0.699670000000     0.242710000000    -0.39902    
O298     O      0.970580000000     0.792680000000     0.252120000000    -0.399157   
O299     O      0.971570000000     0.750820000000     0.200820000000    -0.39467    
O300     O      0.969760000000     0.741540000000     0.294030000000    -0.39529    
O301     O      0.520450000000     0.750660000000     0.295090000000    -0.39474    
O302     O      0.522270000000     0.741750000000     0.201840000000    -0.394981   
O303     O      0.521470000000     0.792830000000     0.243960000000    -0.39469    
O304     O      0.521230000000     0.699440000000     0.252870000000    -0.394714   
O305     O      0.793210000000     0.968810000000     0.246890000000    -0.397549   
O306     O      0.699550000000     0.970270000000     0.250370000000    -0.396422   
O307     O      0.743760000000     0.968140000000     0.201060000000    -0.39846    
O308     O      0.749010000000     0.970760000000     0.294340000000    -0.399214   
O309     O      0.744600000000     0.522090000000     0.292930000000    -0.392771   
O310     O      0.749480000000     0.519330000000     0.199250000000    -0.399426   
O311     O      0.700340000000     0.521290000000     0.243110000000    -0.40095    
O312     O      0.793780000000     0.520460000000     0.247190000000    -0.39714    
O313     O      0.771750000000     0.500480000000     0.043860000000    -0.389059   
O314     O      0.773160000000     0.493210000000     0.450600000000    -0.400957   
O315     O      0.771600000000     0.543580000000     0.493490000000    -0.394312   
O316     O      0.773230000000     0.950190000000     0.000820000000    -0.383387   
O317     O      0.722640000000     0.949350000000     0.991190000000    -0.391385   
O318     O      0.720740000000     0.542460000000     0.501600000000    -0.394337   
O319     O      0.722260000000     0.001200000000     0.449830000000    -0.38585    
O320     O      0.721210000000     0.990510000000     0.043020000000    -0.386303   
O321     O      0.501070000000     0.720850000000     0.044550000000    -0.394744   
O322     O      0.490370000000     0.720580000000     0.451630000000    -0.401865   
O323     O      0.542240000000     0.720190000000     0.492800000000    -0.401008   
O324     O      0.949050000000     0.721500000000     0.003120000000    -0.383534   
O325     O      0.949820000000     0.772250000000     0.994460000000    -0.398734   
O326     O      0.543070000000     0.770990000000     0.501330000000    -0.397112   
O327     O      0.999630000000     0.771230000000     0.451150000000    -0.398852   
O328     O      0.993120000000     0.771750000000     0.044710000000    -0.388756   
O329     O      0.740680000000     0.700000000000     0.022650000000    -0.392883   
O330     O      0.751120000000     0.793010000000     0.022050000000    -0.392342   
O331     O      0.699200000000     0.751400000000     0.021950000000    -0.388496   
O332     O      0.792520000000     0.741490000000     0.022720000000    -0.388064   
O333     O      0.792780000000     0.750230000000     0.471950000000    -0.396964   
O334     O      0.699620000000     0.742210000000     0.471270000000    -0.396084   
O335     O      0.742480000000     0.792940000000     0.471260000000    -0.395632   
O336     O      0.750010000000     0.699500000000     0.471990000000    -0.395748   
O337     O      0.993530000000     0.542970000000     0.722000000000    -0.397942   
O338     O      0.998990000000     0.949420000000     0.721700000000    -0.39382    
O339     O      0.949510000000     0.994920000000     0.722070000000    -0.396373   
O340     O      0.543000000000     0.499270000000     0.721420000000    -0.396356   
O341     O      0.543600000000     0.493120000000     0.772580000000    -0.394553   
O342     O      0.949920000000     0.996820000000     0.773600000000    -0.395182   
O343     O      0.494240000000     0.949210000000     0.773010000000    -0.397611   
O344     O      0.499210000000     0.542700000000     0.773220000000    -0.393404   
O345     O      0.970710000000     0.699670000000     0.742710000000    -0.399025   
O346     O      0.970580000000     0.792680000000     0.752120000000    -0.399176   
O347     O      0.971570000000     0.750820000000     0.700820000000    -0.394727   
O348     O      0.969760000000     0.741540000000     0.794030000000    -0.395296   
O349     O      0.520450000000     0.750660000000     0.795090000000    -0.394757   
O350     O      0.522270000000     0.741750000000     0.701840000000    -0.395025   
O351     O      0.521470000000     0.792830000000     0.743960000000    -0.394725   
O352     O      0.521230000000     0.699440000000     0.752870000000    -0.394734   
O353     O      0.793210000000     0.968810000000     0.746890000000    -0.397581   
O354     O      0.699550000000     0.970270000000     0.750370000000    -0.396441   
O355     O      0.743760000000     0.968140000000     0.701060000000    -0.398496   
O356     O      0.749010000000     0.970760000000     0.794340000000    -0.399223   
O357     O      0.744600000000     0.522090000000     0.792930000000    -0.392786   
O358     O      0.749480000000     0.519330000000     0.699250000000    -0.399491   
O359     O      0.700340000000     0.521290000000     0.743110000000    -0.400961   
O360     O      0.793780000000     0.520460000000     0.747200000000    -0.39717    
O361     O      0.771750000000     0.500480000000     0.543860000000    -0.394777   
O362     O      0.773160000000     0.493210000000     0.950600000000    -0.399798   
O363     O      0.771600000000     0.543580000000     0.993490000000    -0.39195    
O364     O      0.773230000000     0.950190000000     0.500820000000    -0.395651   
O365     O      0.722640000000     0.949350000000     0.491190000000    -0.393767   
O366     O      0.720740000000     0.542460000000     0.001600000000    -0.382102   
O367     O      0.722260000000     0.001200000000     0.949830000000    -0.384821   
O368     O      0.721210000000     0.990510000000     0.543020000000    -0.391991   
O369     O      0.501070000000     0.720850000000     0.544550000000    -0.400311   
O370     O      0.490370000000     0.720580000000     0.951630000000    -0.400734   
O371     O      0.542240000000     0.720190000000     0.992800000000    -0.398716   
O372     O      0.949050000000     0.721500000000     0.503120000000    -0.395872   
O373     O      0.949820000000     0.772250000000     0.494460000000    -0.401114   
O374     O      0.543070000000     0.770990000000     0.001330000000    -0.384721   
O375     O      0.999630000000     0.771230000000     0.951150000000    -0.397791   
O376     O      0.993120000000     0.771750000000     0.544710000000    -0.39444    
O377     O      0.740680000000     0.700000000000     0.522650000000    -0.399573   
O378     O      0.751120000000     0.793010000000     0.522050000000    -0.399032   
O379     O      0.699200000000     0.751400000000     0.521950000000    -0.395281   
O380     O      0.792520000000     0.741490000000     0.522720000000    -0.394859   
O381     O      0.792780000000     0.750230000000     0.971950000000    -0.395013   
O382     O      0.699620000000     0.742210000000     0.971270000000    -0.394146   
O383     O      0.742480000000     0.792940000000     0.971260000000    -0.393679   
O384     O      0.750010000000     0.699500000000     0.971990000000    -0.393803   


