data_structure

_audit_creation_method RASPA-1.0
_audit_creation_date 2023-6-5
_audit_author_name 'Poobodin Mano'

_cell_length_a    35.3827
_cell_length_b    35.558
_cell_length_c    21.263
_cell_angle_alpha 89.9803
_cell_angle_beta  90.0199
_cell_angle_gamma 119.983
_cell_volume      23171.7

_symmetry_cell_setting          triclinic
_symmetry_space_group_name_Hall 'P 1'
_symmetry_space_group_name_H-M  'P 1'
_symmetry_Int_Tables_number     1

_symmetry_equiv_pos_as_xyz 'x,y,z'

loop_
_atom_site_label
_atom_site_type_symbol
_atom_site_fract_x
_atom_site_fract_y
_atom_site_fract_z
_atom_site_charge
C1       C      0.914640000000     0.716410000000     0.668800000000     0.404006   
C2       C      0.747210000000     0.637000000000     0.603290000000     0.406582   
C3       C      0.811100000000     0.668590000000     0.757710000000     0.404012   
C4       C      0.848730000000     0.684350000000     0.513180000000     0.403572   
C5       C      0.081150000000     0.793940000000     0.769150000000     0.410723   
C6       C      0.249600000000     0.876580000000     0.831920000000     0.403366   
C7       C      0.185430000000     0.852310000000     0.677040000000     0.402051   
C8       C      0.146630000000     0.817030000000     0.920420000000     0.401282   
C9       C      0.584820000000     0.034080000000     0.993340000000     0.410216   
C10      C      0.416290000000     0.956700000000     0.932390000000     0.410782   
C11      C      0.481520000000     0.993530000000     0.084700000000     0.403407   
C12      C      0.521630000000     0.997370000000     0.842550000000     0.40993    
C13      C      0.081680000000     0.290070000000     0.270640000000     0.404625   
C14      C      0.250020000000     0.370400000000     0.330780000000     0.412551   
C15      C      0.184660000000     0.330860000000     0.180520000000     0.401173   
C16      C      0.145530000000     0.328440000000     0.423640000000     0.407687   
C17      C      0.911790000000     0.206470000000     0.181610000000     0.412612   
C18      C      0.746770000000     0.115190000000     0.106020000000     0.403878   
C19      C      0.811540000000     0.140210000000     0.264050000000     0.40916    
C20      C      0.847710000000     0.181570000000     0.022250000000     0.410255   
C21      C      0.580740000000     0.550500000000     0.503590000000     0.413858   
C22      C      0.414550000000     0.456580000000     0.435050000000     0.405523   
C23      C      0.476310000000     0.485500000000     0.591640000000     0.408296   
C24      C      0.515610000000     0.519470000000     0.350350000000     0.415413   
C25      C      0.127460000000     0.370870000000     0.844410000000     0.406958   
C26      C      0.209730000000     0.288470000000     0.763530000000     0.399499   
C27      C      0.188070000000     0.325640000000     0.922560000000     0.406545   
C28      C      0.149230000000     0.333620000000     0.682040000000     0.40098    
C29      C      0.290700000000     0.202730000000     0.662740000000     0.407521   
C30      C      0.372810000000     0.117150000000     0.594940000000     0.399057   
C31      C      0.335050000000     0.141310000000     0.751900000000     0.407113   
C32      C      0.329050000000     0.177830000000     0.509520000000     0.400243   
C33      C      0.044690000000     0.457110000000     0.937280000000     0.400524   
C34      C      0.968150000000     0.547520000000     0.007200000000     0.401048   
C35      C      0.001860000000     0.519630000000     0.851480000000     0.403336   
C36      C      0.009000000000     0.484050000000     0.093560000000     0.401631   
C37      C      0.636180000000     0.871280000000     0.357980000000     0.405528   
C38      C      0.709920000000     0.774070000000     0.311530000000     0.403833   
C39      C      0.668710000000     0.806960000000     0.457780000000     0.409902   
C40      C      0.676260000000     0.841540000000     0.213010000000     0.401472   
C41      C      0.789130000000     0.699410000000     0.183690000000     0.403803   
C42      C      0.884300000000     0.632410000000     0.101680000000     0.407476   
C43      C      0.854140000000     0.671580000000     0.256260000000     0.418124   
C44      C      0.814930000000     0.665810000000     0.016360000000     0.413236   
C45      C      0.548870000000     0.957670000000     0.432600000000     0.399695   
C46      C      0.458600000000     0.036500000000     0.493390000000     0.406104   
C47      C      0.485210000000     0.998900000000     0.342590000000     0.409092   
C48      C      0.520610000000     0.994620000000     0.585080000000     0.404442   
C49      C      0.295700000000     0.082700000000     0.170820000000     0.410723   
C50      C      0.367670000000     0.247180000000     0.093850000000     0.401981   
C51      C      0.333610000000     0.186910000000     0.251510000000     0.407586   
C52      C      0.329810000000     0.143060000000     0.010330000000     0.400773   
C53      C      0.448800000000     0.414580000000     0.998060000000     0.410045   
C54      C      0.541570000000     0.583600000000     0.944890000000     0.402625   
C55      C      0.511840000000     0.516820000000     0.092640000000     0.408053   
C56      C      0.479230000000     0.484720000000     0.849470000000     0.415414   
C57      C      0.209780000000     0.913520000000     0.261800000000     0.401709   
C58      C      0.123190000000     0.748550000000     0.337390000000     0.400752   
C59      C      0.146190000000     0.808350000000     0.178640000000     0.407334   
C60      C      0.185890000000     0.854700000000     0.418990000000     0.407547   
C61      C      0.041690000000     0.583010000000     0.439890000000     0.409025   
C62      C      0.958630000000     0.415990000000     0.508970000000     0.406584   
C63      C      0.000720000000     0.477830000000     0.351330000000     0.407936   
C64      C      0.999080000000     0.518200000000     0.592710000000     0.40991    
C65      C      0.875600000000     0.247270000000     0.603130000000     0.401171   
C66      C      0.791690000000     0.083090000000     0.684120000000     0.401623   
C67      C      0.815960000000     0.140560000000     0.522870000000     0.402186   
C68      C      0.850630000000     0.188620000000     0.763300000000     0.40169    
C69      C      0.632220000000     0.756580000000     0.876120000000     0.410287   
C70      C      0.712080000000     0.921580000000     0.799660000000     0.40782    
C71      C      0.679280000000     0.861230000000     0.956830000000     0.407293   
C72      C      0.665790000000     0.814650000000     0.715980000000     0.403779   
C73      C      0.792830000000     0.020190000000     0.719840000000     0.0253858  
C74      C      0.730580000000     0.026470000000     0.737640000000    -0.0132228  
C75      C      0.773220000000     0.980590000000     0.751650000000     0.0315015  
C76      C      0.711500000000     0.987840000000     0.773060000000     0.147901   
C77      C      0.939280000000     0.310060000000     0.564080000000     0.0262508  
C78      C      0.873480000000     0.310700000000     0.574260000000    -0.0137057  
C79      C      0.959540000000     0.352560000000     0.540810000000     0.0309263  
C80      C      0.893850000000     0.354110000000     0.554070000000     0.145133   
C81      C      0.058670000000     0.684390000000     0.369930000000     0.0257142  
C82      C      0.127500000000     0.691290000000     0.387660000000    -0.0144736  
C83      C      0.038730000000     0.643170000000     0.397360000000     0.0320599  
C84      C      0.108050000000     0.651920000000     0.421030000000     0.145977   
C85      C      0.607600000000     0.646230000000     0.912330000000     0.0256555  
C86      C      0.546060000000     0.652250000000     0.937910000000    -0.0154305  
C87      C      0.630510000000     0.690230000000     0.896330000000     0.0336123  
C88      C      0.569660000000     0.696980000000     0.926090000000     0.147339   
C89      C      0.209820000000     0.976300000000     0.223970000000     0.025038   
C90      C      0.276410000000     0.977420000000     0.235840000000    -0.0129618  
C91      C      0.231970000000     0.018500000000     0.200870000000     0.0298557  
C92      C      0.299620000000     0.021410000000     0.217550000000     0.145876   
C93      C      0.430940000000     0.312580000000     0.064070000000     0.0247657  
C94      C      0.361860000000     0.305670000000     0.048840000000    -0.0133391  
C95      C      0.450640000000     0.353690000000     0.037390000000     0.0320729  
C96      C      0.381350000000     0.346800000000     0.019610000000     0.148051   
C97      C      0.700750000000     0.813360000000     0.621340000000     0.0253049  
C98      C      0.626610000000     0.793900000000     0.619450000000    -0.012794   
C99      C      0.701200000000     0.812430000000     0.555910000000     0.0329971  
C100     C      0.626400000000     0.792540000000     0.553330000000     0.146479   
C101     C      0.639440000000     0.833500000000     0.116240000000     0.024226   
C102     C      0.715770000000     0.878920000000     0.121130000000    -0.0144532  
C103     C      0.640370000000     0.841370000000     0.051930000000     0.0328755  
C104     C      0.717250000000     0.885980000000     0.055800000000     0.1479     
C105     C      0.725750000000     0.699860000000     0.214000000000     0.0264884  
C106     C      0.790110000000     0.739060000000     0.274740000000    -0.0401426  
C107     C      0.705330000000     0.717700000000     0.248460000000     0.0346723  
C108     C      0.769340000000     0.758040000000     0.309480000000     0.156036   
C109     C      0.550890000000     0.893120000000     0.411040000000     0.0245093  
C110     C      0.614420000000     0.960720000000     0.396470000000    -0.0129443  
C111     C      0.572960000000     0.872160000000     0.390610000000     0.0308437  
C112     C      0.636790000000     0.939930000000     0.373270000000     0.147133   
C113     C      0.037440000000     0.548730000000     0.753770000000     0.0271437  
C114     C      0.961070000000     0.505410000000     0.757490000000    -0.00553297 
C115     C      0.035830000000     0.546810000000     0.688130000000     0.0321643  
C116     C      0.958640000000     0.504260000000     0.691750000000     0.141179   
C117     C      0.044740000000     0.499330000000     0.193060000000     0.0252016  
C118     C      0.969400000000     0.449210000000     0.186330000000    -0.0142819  
C119     C      0.042410000000     0.495680000000     0.258540000000     0.0331028  
C120     C      0.966370000000     0.446520000000     0.252280000000     0.147109   
C121     C      0.904280000000     0.549030000000     0.036810000000     0.0250557  
C122     C      0.972520000000     0.612650000000     0.046410000000    -0.0129569  
C123     C      0.884070000000     0.570450000000     0.062360000000     0.0310677  
C124     C      0.952610000000     0.634440000000     0.074490000000     0.147252   
C125     C      0.293440000000     0.119710000000     0.911740000000     0.0245154  
C126     C      0.369570000000     0.149090000000     0.916860000000    -0.0149047  
C127     C      0.295140000000     0.117710000000     0.846300000000     0.032718   
C128     C      0.371860000000     0.148470000000     0.850750000000     0.14733    
C129     C      0.292150000000     0.163120000000     0.411120000000     0.024787   
C130     C      0.367380000000     0.213810000000     0.416330000000    -0.0146211  
C131     C      0.293440000000     0.167610000000     0.345790000000     0.032706   
C132     C      0.369370000000     0.217450000000     0.350350000000     0.147163   
C133     C      0.373250000000     0.052900000000     0.563280000000     0.0258466  
C134     C      0.434820000000     0.121470000000     0.545000000000    -0.0142603  
C135     C      0.394780000000     0.033040000000     0.535750000000     0.0315917  
C136     C      0.454930000000     0.102090000000     0.511610000000     0.14516    
C137     C      0.041750000000     0.393190000000     0.895710000000     0.0262526  
C138     C      0.109670000000     0.454860000000     0.917670000000    -0.0138012  
C139     C      0.063120000000     0.371790000000     0.872890000000     0.0333075  
C140     C      0.131430000000     0.432870000000     0.898410000000     0.146702   
C141     C      0.274000000000     0.287680000000     0.731760000000     0.0256534  
C142     C      0.205040000000     0.226250000000     0.714570000000    -0.0144068  
C143     C      0.293830000000     0.266040000000     0.704750000000     0.0318185  
C144     C      0.224390000000     0.205800000000     0.681900000000     0.145939   
C145     C      0.483730000000     0.455460000000     0.687320000000     0.0258913  
C146     C      0.455570000000     0.503170000000     0.687980000000    -0.0132159  
C147     C      0.486260000000     0.457330000000     0.752620000000     0.0341623  
C148     C      0.458400000000     0.505860000000     0.753630000000     0.147981   
C149     C      0.543450000000     0.511420000000     0.188410000000     0.0261742  
C150     C      0.495620000000     0.539570000000     0.187980000000    -0.0131008  
C151     C      0.542630000000     0.510800000000     0.253920000000     0.0343674  
C152     C      0.493930000000     0.538640000000     0.253630000000     0.147473   
C153     C      0.881270000000     0.182690000000     0.859910000000     0.0253983  
C154     C      0.829630000000     0.206010000000     0.860130000000    -0.0132206  
C155     C      0.878510000000     0.179040000000     0.925360000000     0.0337651  
C156     C      0.826420000000     0.202530000000     0.926010000000     0.146296   
C157     C      0.781950000000     0.142410000000     0.427310000000     0.0247815  
C158     C      0.835390000000     0.121430000000     0.426040000000    -0.0135554  
C159     C      0.782470000000     0.143770000000     0.361730000000     0.032065   
C160     C      0.836270000000     0.122510000000     0.359930000000     0.145264   
C161     C      0.165250000000     0.369940000000     0.583360000000     0.0258914  
C162     C      0.115200000000     0.294850000000     0.588230000000    -0.0138251  
C163     C      0.162600000000     0.368330000000     0.517840000000     0.0335546  
C164     C      0.113550000000     0.292530000000     0.522050000000     0.14712    
C165     C      0.207260000000     0.367030000000     0.081990000000     0.0244907  
C166     C      0.180350000000     0.291660000000     0.087460000000    -0.0143523  
C167     C      0.210180000000     0.365480000000     0.016740000000     0.0328187  
C168     C      0.181560000000     0.289430000000     0.021430000000     0.147063   
C169     C      0.018780000000     0.227200000000     0.233250000000     0.0253533  
C170     C      0.016630000000     0.291600000000     0.248800000000    -0.0129002  
C171     C      0.976360000000     0.207000000000     0.210400000000     0.0295191  
C172     C      0.972360000000     0.270400000000     0.231420000000     0.147133   
C173     C      0.351410000000     0.390460000000     0.405030000000     0.0267927  
C174     C      0.357700000000     0.457730000000     0.378620000000    -0.0139236  
C175     C      0.310450000000     0.368970000000     0.376320000000     0.0332011  
C176     C      0.318920000000     0.436540000000     0.344130000000     0.147488   
C177     C      0.504550000000     0.957470000000     0.682680000000     0.025901   
C178     C      0.553690000000     0.032890000000     0.679480000000    -0.0134302  
C179     C      0.506550000000     0.958420000000     0.748020000000     0.0332813  
C180     C      0.554930000000     0.034450000000     0.745580000000     0.146567   
C181     C      0.461330000000     0.957500000000     0.183270000000     0.025235   
C182     C      0.488410000000     0.032950000000     0.178510000000    -0.0143186  
C183     C      0.460940000000     0.959200000000     0.248640000000     0.0330283  
C184     C      0.489440000000     0.035280000000     0.244610000000     0.146012   
C185     C      0.684540000000     0.050630000000     0.069240000000     0.0261722  
C186     C      0.690920000000     0.118910000000     0.050740000000    -0.0140787  
C187     C      0.644330000000     0.030540000000     0.038280000000     0.0317704  
C188     C      0.653280000000     0.099470000000     0.013570000000     0.145905   
C189     C      0.207440000000     0.836850000000     0.579510000000     0.0254907  
C190     C      0.180670000000     0.885630000000     0.582410000000    -0.0135759  
C191     C      0.209340000000     0.839440000000     0.514080000000     0.0334218  
C192     C      0.180860000000     0.887180000000     0.516170000000     0.148056   
C193     C      0.125910000000     0.831430000000     0.020000000000     0.0255318  
C194     C      0.152090000000     0.782300000000     0.012910000000    -0.0138393  
C195     C      0.123940000000     0.827080000000     0.085300000000     0.0320165  
C196     C      0.151860000000     0.778960000000     0.078910000000     0.146611   
C197     C      0.313790000000     0.875400000000     0.861800000000     0.0252089  
C198     C      0.309290000000     0.938470000000     0.878910000000    -0.0135977  
C199     C      0.354810000000     0.895280000000     0.890000000000     0.0324129  
C200     C      0.349640000000     0.958070000000     0.910350000000     0.148921   
C201     C      0.814200000000     0.701620000000     0.856290000000     0.0254492  
C202     C      0.794690000000     0.627890000000     0.852160000000    -0.0130596  
C203     C      0.816570000000     0.700670000000     0.921680000000     0.0339965  
C204     C      0.797360000000     0.626470000000     0.917920000000     0.147619   
C205     C      0.854200000000     0.650420000000     0.421110000000     0.0248852  
C206     C      0.852000000000     0.715580000000     0.411590000000    -0.0130282  
C207     C      0.854730000000     0.647160000000     0.356520000000     0.036371   
C208     C      0.853290000000     0.713250000000     0.345080000000     0.140195   
C209     C      0.683690000000     0.572360000000     0.572430000000     0.026293   
C210     C      0.686600000000     0.639550000000     0.559500000000    -0.0130628  
C211     C      0.642830000000     0.551310000000     0.544520000000     0.0328873  
C212     C      0.646170000000     0.618880000000     0.528210000000     0.149418   
C213     C      0.978750000000     0.714120000000     0.695900000000     0.0267281  
C214     C      0.973540000000     0.775930000000     0.720490000000    -0.0135998  
C215     C      0.019960000000     0.733250000000     0.723690000000     0.0331977  
C216     C      0.013060000000     0.793660000000     0.753750000000     0.147488   
Cu1      Cu     0.832000000000     0.712370000000     0.634710000000     0.834791   
Cu2      Cu     0.829720000000     0.641860000000     0.636820000000     0.868935   
Cu3      Cu     0.164680000000     0.868910000000     0.804520000000     0.84862    
Cu4      Cu     0.166920000000     0.801060000000     0.792940000000     0.843949   
Cu5      Cu     0.503430000000     0.030910000000     0.957920000000     0.852202   
Cu6      Cu     0.497650000000     0.959170000000     0.968450000000     0.844932   
Cu7      Cu     0.167610000000     0.365400000000     0.296490000000     0.85413    
Cu8      Cu     0.163390000000     0.294350000000     0.307880000000     0.842779   
Cu9      Cu     0.825230000000     0.192820000000     0.150590000000     0.851058   
Cu10     Cu     0.833440000000     0.128520000000     0.135660000000     0.842278   
Cu11     Cu     0.493380000000     0.535500000000     0.475410000000     0.863698   
Cu12     Cu     0.501020000000     0.470410000000     0.467060000000     0.849142   
Cu13     Cu     0.134400000000     0.294540000000     0.808000000000     0.8402     
Cu14     Cu     0.202290000000     0.364930000000     0.797100000000     0.842132   
Cu15     Cu     0.296430000000     0.125950000000     0.625680000000     0.838043   
Cu16     Cu     0.367380000000     0.193270000000     0.635850000000     0.842554   
Cu17     Cu     0.970000000000     0.469120000000     0.967760000000     0.851346   
Cu18     Cu     0.042310000000     0.535030000000     0.976860000000     0.835957   
Cu19     Cu     0.636800000000     0.791060000000     0.327830000000     0.848965   
Cu20     Cu     0.709980000000     0.854840000000     0.342350000000     0.83244    
Cu21     Cu     0.804040000000     0.630290000000     0.143320000000     0.862069   
Cu22     Cu     0.867420000000     0.704000000000     0.130030000000     0.844593   
Cu23     Cu     0.470200000000     0.961030000000     0.468730000000     0.846297   
Cu24     Cu     0.536900000000     0.032450000000     0.458490000000     0.84145    
Cu25     Cu     0.368150000000     0.169050000000     0.136500000000     0.843438   
Cu26     Cu     0.294910000000     0.160430000000     0.125650000000     0.842166   
Cu27     Cu     0.528290000000     0.496250000000     0.965780000000     0.848534   
Cu28     Cu     0.461970000000     0.502080000000     0.976850000000     0.85839    
Cu29     Cu     0.199480000000     0.828550000000     0.293750000000     0.847431   
Cu30     Cu     0.132540000000     0.833350000000     0.304170000000     0.842417   
Cu31     Cu     0.035680000000     0.500800000000     0.479520000000     0.840989   
Cu32     Cu     0.965040000000     0.497120000000     0.463690000000     0.8422     
Cu33     Cu     0.867680000000     0.163500000000     0.639440000000     0.837374   
Cu34     Cu     0.799600000000     0.166400000000     0.646380000000     0.850184   
Cu35     Cu     0.708190000000     0.840310000000     0.839530000000     0.840409   
Cu36     Cu     0.636920000000     0.836740000000     0.832750000000     0.852212   
H1       H      0.791270000000     0.963360000000     0.753890000000     0.036058   
H2       H      0.825300000000     0.031980000000     0.700930000000     0.0376571  
H3       H      0.713440000000     0.044610000000     0.734740000000     0.0508995  
H4       H      0.659780000000     0.996590000000     0.802870000000     0.0917443  
H5       H      0.663960000000     0.956080000000     0.844460000000     0.107895   
H6       H      0.993490000000     0.366990000000     0.527040000000     0.0389408  
H7       H      0.958610000000     0.294240000000     0.567980000000     0.039482   
H8       H      0.839460000000     0.295360000000     0.588200000000     0.0495209  
H9       H      0.883830000000     0.408420000000     0.560070000000     0.104835   
H10      H      0.837630000000     0.358010000000     0.573270000000     0.0868053  
H11      H      0.003350000000     0.625130000000     0.397950000000     0.0388076  
H12      H      0.038030000000     0.696470000000     0.352010000000     0.0388311  
H13      H      0.162880000000     0.710290000000     0.386560000000     0.0483576  
H14      H      0.123630000000     0.621020000000     0.493880000000     0.106249   
H15      H      0.168580000000     0.662370000000     0.453860000000     0.0867109  
H16      H      0.663380000000     0.703340000000     0.878220000000     0.0383426  
H17      H      0.624070000000     0.627610000000     0.907170000000     0.0410389  
H18      H      0.513160000000     0.638550000000     0.956260000000     0.047952   
H19      H      0.570380000000     0.755040000000     0.951790000000     0.103811   
H20      H      0.520570000000     0.706890000000     0.964520000000     0.0861998  
H21      H      0.211950000000     0.032200000000     0.186630000000     0.0369748  
H22      H      0.174510000000     0.960220000000     0.226500000000     0.0364309  
H23      H      0.294830000000     0.962030000000     0.250610000000     0.0508861  
H24      H      0.363530000000     0.076350000000     0.228550000000     0.108815   
H25      H      0.359680000000     0.025990000000     0.239260000000     0.0901757  
H26      H      0.486010000000     0.371290000000     0.035870000000     0.0365643  
H27      H      0.452050000000     0.300500000000     0.079910000000     0.0372373  
H28      H      0.326520000000     0.286780000000     0.051130000000     0.0509375  
H29      H      0.365480000000     0.383840000000     0.957810000000     0.109041   
H30      H      0.320710000000     0.339630000000     0.994260000000     0.0924099  
H31      H      0.731560000000     0.819960000000     0.532850000000     0.0305827  
H32      H      0.730990000000     0.822430000000     0.645880000000     0.037432   
H33      H      0.596840000000     0.787260000000     0.643510000000     0.0496767  
H34      H      0.587500000000     0.790710000000     0.475330000000     0.106744   
H35      H      0.561360000000     0.778630000000     0.548580000000     0.0878381  
H36      H      0.609630000000     0.824910000000     0.026680000000     0.0303324  
H37      H      0.607990000000     0.812660000000     0.137960000000     0.0371564  
H38      H      0.746030000000     0.894980000000     0.147590000000     0.049138   
H39      H      0.758450000000     0.925870000000     0.982820000000     0.103891   
H40      H      0.784500000000     0.930880000000     0.055980000000     0.0882262  
H41      H      0.672080000000     0.708210000000     0.235420000000     0.0382067  
H42      H      0.707480000000     0.677210000000     0.176590000000     0.0383806  
H43      H      0.822190000000     0.741880000000     0.292120000000     0.108268   
H44      H      0.772580000000     0.791070000000     0.393670000000     0.103274   
H45      H      0.819400000000     0.787580000000     0.377080000000     0.085518   
H46      H      0.554690000000     0.836950000000     0.391110000000     0.0336484  
H47      H      0.516970000000     0.873050000000     0.424550000000     0.037343   
H48      H      0.631380000000     0.995940000000     0.396840000000     0.0513587  
H49      H      0.692420000000     0.953670000000     0.318210000000     0.109633   
H50      H      0.692020000000     0.999240000000     0.349150000000     0.0929769  
H51      H      0.066610000000     0.563790000000     0.663030000000     0.0340099  
H52      H      0.069140000000     0.566070000000     0.776290000000     0.0369653  
H53      H      0.930780000000     0.488320000000     0.783850000000     0.0549103  
H54      H      0.909460000000     0.473910000000     0.620430000000     0.100263   
H56      H      0.072100000000     0.515410000000     0.285100000000     0.0348998  
H57      H      0.076180000000     0.520760000000     0.171780000000     0.0371131  
H58      H      0.939980000000     0.429800000000     0.159080000000     0.0496986  
H59      H      0.924310000000     0.409910000000     0.326820000000     0.103826   
H60      H      0.900170000000     0.398240000000     0.251200000000     0.0876678  
H61      H      0.848770000000     0.551950000000     0.065680000000     0.0336418  
H62      H      0.883660000000     0.515300000000     0.023550000000     0.0377571  
H63      H      0.007800000000     0.629840000000     0.042050000000     0.050973   
H64      H      0.968850000000     0.689770000000     0.131200000000     0.109435   
H65      H      0.013040000000     0.689930000000     0.093420000000     0.0925834  
H66      H      0.264750000000     0.105730000000     0.820620000000     0.0353618  
H67      H      0.261860000000     0.108240000000     0.933630000000     0.0371194  
H68      H      0.399570000000     0.161030000000     0.943530000000     0.0485425  
H69      H      0.413970000000     0.154410000000     0.775860000000     0.105226   
H70      H      0.438950000000     0.169690000000     0.850700000000     0.0880097  
H71      H      0.263390000000     0.147900000000     0.320010000000     0.0343259  
H72      H      0.261080000000     0.141170000000     0.432970000000     0.0359182  
H73      H      0.397110000000     0.233110000000     0.443020000000     0.0486368  
H74      H      0.410030000000     0.255610000000     0.275620000000     0.104394   
H75      H      0.435360000000     0.266290000000     0.350350000000     0.0876571  
H76      H      0.377850000000     0.997840000000     0.535450000000     0.0391751  
H77      H      0.340550000000     0.032300000000     0.581380000000     0.0395975  
H78      H      0.450950000000     0.156670000000     0.545790000000     0.0482443  
H79      H      0.501170000000     0.117210000000     0.438440000000     0.10169    
H80      H      0.504430000000     0.162220000000     0.477640000000     0.0858097  
H81      H      0.043040000000     0.339320000000     0.854190000000     0.0387873  
H82      H      0.006390000000     0.376040000000     0.894540000000     0.0410562  
H83      H      0.129140000000     0.487350000000     0.936760000000     0.0495167  
H84      H      0.191630000000     0.434440000000     0.913400000000     0.10451    
H85      H      0.191860000000     0.482720000000     0.931460000000     0.0865805  
H86      H      0.329200000000     0.283070000000     0.704120000000     0.0389802  
H87      H      0.294810000000     0.320370000000     0.749270000000     0.0390186  
H88      H      0.169670000000     0.210180000000     0.715780000000     0.0484689  
H89      H      0.208530000000     0.158530000000     0.610320000000     0.106197   
H90      H      0.163730000000     0.155780000000     0.649970000000     0.0865852  
H91      H      0.498150000000     0.438220000000     0.776330000000     0.0339985  
H92      H      0.495080000000     0.436120000000     0.663080000000     0.0379037  
H93      H      0.444140000000     0.522370000000     0.663370000000     0.0498561  
H94      H      0.438480000000     0.552490000000     0.756470000000     0.0883045  
H95      H      0.459340000000     0.546500000000     0.828150000000     0.107426   
H96      H      0.562040000000     0.499450000000     0.278220000000     0.0340455  
H97      H      0.562350000000     0.499380000000     0.164500000000     0.0376928  
H98      H      0.476140000000     0.550550000000     0.162910000000     0.0485991  
H99      H      0.454030000000     0.540010000000     0.327980000000     0.105203   
H100     H      0.447180000000     0.558650000000     0.255170000000     0.0852561  
H101     H      0.898700000000     0.168410000000     0.949120000000     0.0342005  
H102     H      0.902460000000     0.173490000000     0.835870000000     0.0379291  
H103     H      0.809110000000     0.215820000000     0.835350000000     0.0481685  
H104     H      0.784380000000     0.199550000000     0.000190000000     0.105218   
H105     H      0.776970000000     0.218870000000     0.928170000000     0.0852179  
H106     H      0.760840000000     0.152750000000     0.338360000000     0.032976   
H107     H      0.760750000000     0.151420000000     0.451730000000     0.037499   
H108     H      0.857400000000     0.113400000000     0.450410000000     0.0486304  
H109     H      0.886830000000     0.107810000000     0.356380000000     0.0872254  
H110     H      0.876160000000     0.123720000000     0.283710000000     0.107016   
H111     H      0.182600000000     0.398280000000     0.492230000000     0.0358659  
H112     H      0.186310000000     0.401070000000     0.605420000000     0.0383147  
H113     H      0.095600000000     0.265290000000     0.614860000000     0.048254   
H114     H      0.065440000000     0.226520000000     0.521440000000     0.0873789  
H115     H      0.077760000000     0.251260000000     0.446360000000     0.10425    
H116     H      0.221490000000     0.395570000000     0.990960000000     0.0297097  
H117     H      0.217550000000     0.398270000000     0.103760000000     0.0352559  
H118     H      0.169070000000     0.261980000000     0.114310000000     0.0490645  
H119     H      0.177010000000     0.248060000000     0.946640000000     0.104035   
H120     H      0.162040000000     0.223090000000     0.021510000000     0.0881856  
H121     H      0.962890000000     0.173720000000     0.194640000000     0.0349698  
H122     H      0.035450000000     0.208580000000     0.234090000000     0.0363076  
H123     H      0.031680000000     0.324940000000     0.265120000000     0.0510255  
H124     H      0.916260000000     0.276710000000     0.247820000000     0.108912   
H125     H      0.966330000000     0.324010000000     0.258240000000     0.0907852  
H126     H      0.292360000000     0.333810000000     0.378900000000     0.0391719  
H127     H      0.363720000000     0.371150000000     0.426890000000     0.0393955  
H128     H      0.376430000000     0.492930000000     0.376490000000     0.0447656  
H129     H      0.287920000000     0.447170000000     0.266270000000     0.105067   
H130     H      0.329540000000     0.494510000000     0.301910000000     0.0852485  
H131     H      0.486640000000     0.928110000000     0.772870000000     0.0346373  
H132     H      0.484140000000     0.926440000000     0.659930000000     0.037655   
H133     H      0.573220000000     0.062760000000     0.653470000000     0.0489396  
H134     H      0.590300000000     0.074750000000     0.822290000000     0.0991053  
H135     H      0.602880000000     0.100500000000     0.747930000000     0.0861446  
H136     H      0.450400000000     0.929100000000     0.274090000000     0.0352506  
H137     H      0.450150000000     0.926190000000     0.161190000000     0.0375949  
H138     H      0.498850000000     0.062580000000     0.151890000000     0.0483045  
H139     H      0.495750000000     0.076680000000     0.320460000000     0.099763   
H140     H      0.508520000000     0.101510000000     0.245470000000     0.0858769  
H141     H      0.626400000000     0.995350000000     0.036890000000     0.0377444  
H142     H      0.696540000000     0.030380000000     0.088740000000     0.0381831  
H143     H      0.709470000000     0.154130000000     0.052650000000     0.0442403  
H144     H      0.624730000000     0.114010000000     0.936420000000     0.100357   
H145     H      0.664910000000     0.159410000000     0.977560000000     0.0839405  
H146     H      0.220230000000     0.819860000000     0.489360000000     0.0341211  
H147     H      0.218010000000     0.816400000000     0.602380000000     0.0372212  
H148     H      0.169770000000     0.904760000000     0.608320000000     0.0492452  
H149     H      0.161520000000     0.934220000000     0.513630000000     0.0885459  
H150     H      0.175330000000     0.922060000000     0.439360000000     0.104851   
H151     H      0.113250000000     0.846170000000     0.111760000000     0.034576   
H152     H      0.115620000000     0.852630000000     0.998900000000     0.0356402  
H153     H      0.162760000000     0.763590000000     0.985420000000     0.0491183  
H154     H      0.157170000000     0.741960000000     0.152890000000     0.104296   
H155     H      0.170940000000     0.731710000000     0.077330000000     0.0881286  
H156     H      0.371770000000     0.876950000000     0.891260000000     0.035855   
H157     H      0.300700000000     0.842500000000     0.844590000000     0.0377499  
H158     H      0.291460000000     0.955950000000     0.877020000000     0.0521559  
H159     H      0.385680000000     0.007790000000     0.977090000000     0.108129   
H160     H      0.343420000000     0.011290000000     0.939000000000     0.0924614  
H161     H      0.825050000000     0.730290000000     0.947220000000     0.0343176  
H162     H      0.822100000000     0.732130000000     0.834050000000     0.0374624  
H163     H      0.786760000000     0.598760000000     0.825670000000     0.0500217  
H164     H      0.802800000000     0.587280000000     0.989480000000     0.106898   
H165     H      0.784940000000     0.562180000000     0.916160000000     0.0882788  
H166     H      0.855490000000     0.619370000000     0.336690000000     0.0308001  
H167     H      0.854420000000     0.624720000000     0.448290000000     0.0398541  
H168     H      0.849970000000     0.742310000000     0.432590000000     0.0449605  
H169     H      0.867310000000     0.775320000000     0.332390000000     0.0813588  
H170     H      0.871600000000     0.753630000000     0.268310000000     0.107837   
H171     H      0.626720000000     0.516190000000     0.541770000000     0.036657   
H172     H      0.697320000000     0.552570000000     0.588010000000     0.0385525  
H173     H      0.703930000000     0.674710000000     0.562960000000     0.0508193  
H174     H      0.609090000000     0.633110000000     0.463770000000     0.110148   
H175     H      0.650720000000     0.678210000000     0.503360000000     0.0935693  
H176     H      0.037450000000     0.715470000000     0.721480000000     0.0390526  
H177     H      0.965930000000     0.682160000000     0.675210000000     0.040543   
H178     H      0.955160000000     0.792880000000     0.722140000000     0.0488908  
H179     H      0.045510000000     0.837030000000     0.829310000000     0.106032   
H180     H      0.004320000000     0.843120000000     0.792710000000     0.0873531  
N1       N      0.771390000000     0.042930000000     0.712290000000    -0.167607   
N2       N      0.732060000000     0.963410000000     0.776540000000    -0.194244   
N3       N      0.675190000000     0.978150000000     0.807360000000    -0.210767   
N4       N      0.896190000000     0.289090000000     0.580480000000    -0.16784    
N5       N      0.937080000000     0.374670000000     0.534390000000    -0.193017   
N6       N      0.870500000000     0.374990000000     0.560160000000    -0.210968   
N7       N      0.102960000000     0.707830000000     0.363550000000    -0.168371   
N8       N      0.063010000000     0.625950000000     0.421070000000    -0.193801   
N9       N      0.134650000000     0.642920000000     0.456580000000    -0.210545   
N10      N      0.565010000000     0.627090000000     0.931310000000    -0.168537   
N11      N      0.611030000000     0.715170000000     0.900250000000    -0.195026   
N12      N      0.552200000000     0.721460000000     0.946240000000    -0.210686   
N13      N      0.231920000000     0.955520000000     0.240500000000    -0.169047   
N14      N      0.276760000000     0.041420000000     0.196380000000    -0.193338   
N15      N      0.343760000000     0.042850000000     0.225980000000    -0.211305   
N16      N      0.386630000000     0.288580000000     0.070120000000    -0.168267   
N17      N      0.426460000000     0.371740000000     0.016800000000    -0.194301   
N18      N      0.354630000000     0.358680000000     0.990380000000    -0.211697   
N19      N      0.664090000000     0.806260000000     0.652800000000    -0.168136   
N20      N      0.664580000000     0.802670000000     0.521770000000    -0.195943   
N21      N      0.589540000000     0.786000000000     0.523190000000    -0.212864   
N22      N      0.677230000000     0.851290000000     0.150420000000    -0.167933   
N23      N      0.679280000000     0.864860000000     0.021020000000    -0.195937   
N24      N      0.755920000000     0.915340000000     0.029220000000    -0.211545   
N25      N      0.768860000000     0.713800000000     0.223150000000    -0.164578   
N26      N      0.728190000000     0.749800000000     0.291580000000    -0.194356   
N27      N      0.788670000000     0.781180000000     0.362500000000    -0.213905   
N28      N      0.571510000000     0.937360000000     0.414220000000    -0.167163   
N29      N      0.616070000000     0.894930000000     0.372900000000    -0.193267   
N30      N      0.676860000000     0.965380000000     0.347050000000    -0.211646   
N31      N      0.000240000000     0.525690000000     0.788110000000    -0.169465   
N32      N      0.996920000000     0.523630000000     0.656510000000    -0.19269    
N33      N      0.917690000000     0.480300000000     0.667670000000    -0.167819   
N34      N      0.007980000000     0.477120000000     0.157200000000    -0.167459   
N35      N      0.002980000000     0.471860000000     0.288080000000    -0.195436   
N36      N      0.927710000000     0.417100000000     0.278880000000    -0.212299   
N37      N      0.948470000000     0.569920000000     0.029040000000    -0.167561   
N38      N      0.907550000000     0.613210000000     0.080500000000    -0.193852   
N39      N      0.979230000000     0.674440000000     0.099660000000    -0.211814   
N40      N      0.330790000000     0.136630000000     0.946790000000    -0.167835   
N41      N      0.334380000000     0.134770000000     0.815640000000    -0.194659   
N42      N      0.410790000000     0.159110000000     0.823540000000    -0.211823   
N43      N      0.329340000000     0.185250000000     0.446100000000    -0.167707   
N44      N      0.332330000000     0.192250000000     0.315220000000    -0.195208   
N45      N      0.407470000000     0.247610000000     0.323220000000    -0.211995   
N46      N      0.393770000000     0.097030000000     0.569370000000    -0.167718   
N47      N      0.436240000000     0.057290000000     0.511840000000    -0.193491   
N48      N      0.490240000000     0.128460000000     0.475480000000    -0.209929   
N49      N      0.065090000000     0.435020000000     0.916900000000    -0.166997   
N50      N      0.107860000000     0.391920000000     0.871890000000    -0.193403   
N51      N      0.174700000000     0.451400000000     0.912660000000    -0.210875   
N52      N      0.229690000000     0.267370000000     0.738010000000    -0.168008   
N53      N      0.269450000000     0.224570000000     0.681550000000    -0.19329    
N54      N      0.197650000000     0.169980000000     0.647130000000    -0.210473   
N55      N      0.470490000000     0.480130000000     0.655210000000    -0.169504   
N56      N      0.474030000000     0.482540000000     0.785730000000    -0.197168   
N57      N      0.450460000000     0.535610000000     0.782190000000    -0.212331   
N58      N      0.518110000000     0.523690000000     0.155900000000    -0.169729   
N59      N      0.517790000000     0.523900000000     0.286480000000    -0.196932   
N60      N      0.464460000000     0.547420000000     0.281620000000    -0.212388   
N61      N      0.855140000000     0.194000000000     0.827310000000    -0.167913   
N62      N      0.851110000000     0.188540000000     0.958520000000    -0.19471    
N63      N      0.795040000000     0.208330000000     0.954150000000    -0.21243    
N64      N      0.810070000000     0.133470000000     0.459280000000    -0.168127   
N65      N      0.809660000000     0.134350000000     0.327930000000    -0.195495   
N66      N      0.867290000000     0.116670000000     0.330680000000    -0.212814   
N67      N      0.142550000000     0.333010000000     0.618370000000    -0.167426   
N68      N      0.139300000000     0.329450000000     0.487180000000    -0.194731   
N69      N      0.084550000000     0.254250000000     0.494410000000    -0.211947   
N70      N      0.191230000000     0.329970000000     0.117080000000    -0.167792   
N71      N      0.194570000000     0.326530000000     0.986250000000    -0.196117   
N72      N      0.172070000000     0.250990000000     0.994320000000    -0.212363   
N73      N      0.039190000000     0.269720000000     0.250990000000    -0.169832   
N74      N      0.952970000000     0.228330000000     0.207810000000    -0.194715   
N75      N      0.949950000000     0.291650000000     0.243360000000    -0.21082    
N76      N      0.374140000000     0.434760000000     0.407950000000    -0.169678   
N77      N      0.293180000000     0.391880000000     0.348440000000    -0.195413   
N78      N      0.310100000000     0.460690000000     0.303190000000    -0.21009    
N79      N      0.526870000000     0.994910000000     0.648660000000    -0.168386   
N80      N      0.529010000000     0.997070000000     0.779400000000    -0.196121   
N81      N      0.583680000000     0.072420000000     0.774210000000    -0.211532   
N82      N      0.476360000000     0.994540000000     0.148410000000    -0.168638   
N83      N      0.477720000000     0.998190000000     0.279260000000    -0.19568    
N84      N      0.499490000000     0.073680000000     0.272400000000    -0.211712   
N85      N      0.706880000000     0.094640000000     0.077270000000    -0.16973    
N86      N      0.627600000000     0.054690000000     0.012940000000    -0.195495   
N87      N      0.645610000000     0.125610000000     0.975070000000    -0.209723   
N88      N      0.191840000000     0.858850000000     0.613450000000    -0.167664   
N89      N      0.193210000000     0.861920000000     0.482350000000    -0.194943   
N90      N      0.171060000000     0.915490000000     0.487440000000    -0.21181    
N91      N      0.140990000000     0.809890000000     0.984030000000    -0.168236   
N92      N      0.139540000000     0.803310000000     0.114910000000    -0.195308   
N93      N      0.161460000000     0.749800000000     0.105190000000    -0.212151   
N94      N      0.291150000000     0.897050000000     0.855960000000    -0.167995   
N95      N      0.373570000000     0.936960000000     0.912560000000    -0.194983   
N96      N      0.361630000000     0.995560000000     0.942490000000    -0.211082   
N97      N      0.805390000000     0.665800000000     0.821640000000    -0.168324   
N98      N      0.808670000000     0.663600000000     0.952590000000    -0.195665   
N99      N      0.793680000000     0.589640000000     0.943800000000    -0.212231   
N100     N      0.852530000000     0.684240000000     0.448920000000    -0.167734   
N101     N      0.855570000000     0.678580000000     0.319000000000    -0.198728   
N102     N      0.852830000000     0.745490000000     0.308980000000    -0.25032    
N103     N      0.705560000000     0.616380000000     0.580020000000    -0.169035   
N104     N      0.623230000000     0.573980000000     0.523870000000    -0.195509   
N105     N      0.633200000000     0.644450000000     0.498260000000    -0.21116    
N106     N      0.956000000000     0.735860000000     0.693240000000    -0.168339   
N107     N      0.038050000000     0.773620000000     0.750710000000    -0.194363   
N108     N      0.023110000000     0.827920000000     0.792600000000    -0.210179   
O1       O      0.895880000000     0.738930000000     0.659110000000    -0.394768   
O2       O      0.767850000000     0.678380000000     0.611020000000    -0.394798   
O3       O      0.816840000000     0.702540000000     0.727950000000    -0.393324   
O4       O      0.846520000000     0.715220000000     0.541170000000    -0.391813   
O5       O      0.844880000000     0.651830000000     0.544770000000    -0.402029   
O6       O      0.813910000000     0.638450000000     0.728650000000    -0.399989   
O7       O      0.766260000000     0.614960000000     0.613600000000    -0.402834   
O8       O      0.893790000000     0.675230000000     0.659820000000    -0.398136   
O9       O      0.101410000000     0.834720000000     0.780330000000    -0.404361   
O10      O      0.228530000000     0.897230000000     0.828180000000    -0.397461   
O11      O      0.179890000000     0.879040000000     0.711170000000    -0.391462   
O12      O      0.148600000000     0.851190000000     0.896360000000    -0.394325   
O13      O      0.152410000000     0.790820000000     0.885720000000    -0.396119   
O14      O      0.182550000000     0.817980000000     0.701570000000    -0.395695   
O15      O      0.231000000000     0.836210000000     0.816850000000    -0.394713   
O16      O      0.101970000000     0.772810000000     0.771050000000    -0.39312    
O17      O      0.566240000000     0.056450000000     0.982830000000    -0.40707    
O18      O      0.439450000000     0.998240000000     0.933950000000    -0.401074   
O19      O      0.487970000000     0.026050000000     0.050640000000    -0.397821   
O20      O      0.519930000000     0.029560000000     0.866790000000    -0.399821   
O21      O      0.512570000000     0.963760000000     0.875810000000    -0.400562   
O22      O      0.482720000000     0.961170000000     0.060040000000    -0.396125   
O23      O      0.433830000000     0.933480000000     0.945130000000    -0.398498   
O24      O      0.562510000000     0.992370000000     0.990380000000    -0.396596   
O25      O      0.103290000000     0.331630000000     0.274950000000    -0.398449   
O26      O      0.230910000000     0.392150000000     0.319320000000    -0.405892   
O27      O      0.182720000000     0.363030000000     0.204590000000    -0.396013   
O28      O      0.153210000000     0.361370000000     0.389610000000    -0.396293   
O29      O      0.147570000000     0.296350000000     0.399580000000    -0.395519   
O30      O      0.178340000000     0.298580000000     0.215050000000    -0.394394   
O31      O      0.228090000000     0.328640000000     0.330060000000    -0.395404   
O32      O      0.099910000000     0.267510000000     0.283230000000    -0.400627   
O33      O      0.888880000000     0.224910000000     0.175550000000    -0.403411   
O34      O      0.762860000000     0.154900000000     0.123120000000    -0.404646   
O35      O      0.809650000000     0.172750000000     0.241360000000    -0.398975   
O36      O      0.841220000000     0.206500000000     0.058660000000    -0.399811   
O37      O      0.849200000000     0.148760000000     0.044790000000    -0.394788   
O38      O      0.817660000000     0.114980000000     0.227730000000    -0.400386   
O39      O      0.769370000000     0.096120000000     0.110560000000    -0.394543   
O40      O      0.896060000000     0.166910000000     0.163510000000    -0.404083   
O41      O      0.556600000000     0.567890000000     0.502390000000    -0.402835   
O42      O      0.431430000000     0.497250000000     0.446640000000    -0.407147   
O43      O      0.475440000000     0.517530000000     0.565300000000    -0.401722   
O44      O      0.511190000000     0.546710000000     0.384400000000    -0.40892    
O45      O      0.515270000000     0.486380000000     0.375180000000    -0.400159   
O46      O      0.486200000000     0.460980000000     0.559790000000    -0.398587   
O47      O      0.436550000000     0.437250000000     0.444280000000    -0.394976   
O48      O      0.564400000000     0.510070000000     0.490070000000    -0.400935   
O49      O      0.106080000000     0.329340000000     0.837870000000    -0.392141   
O50      O      0.168990000000     0.266790000000     0.777410000000    -0.397391   
O51      O      0.153610000000     0.293970000000     0.898160000000    -0.395204   
O52      O      0.122510000000     0.301420000000     0.716270000000    -0.392887   
O53      O      0.184040000000     0.364900000000     0.706340000000    -0.392343   
O54      O      0.213590000000     0.358830000000     0.889090000000    -0.401041   
O55      O      0.231150000000     0.329950000000     0.770550000000    -0.391638   
O56      O      0.167130000000     0.392650000000     0.825460000000    -0.397619   
O57      O      0.269000000000     0.161880000000     0.651350000000    -0.39881    
O58      O      0.331060000000     0.096280000000     0.601100000000    -0.390785   
O59      O      0.301940000000     0.115490000000     0.718330000000    -0.394864   
O60      O      0.297220000000     0.143540000000     0.534060000000    -0.394123   
O61      O      0.361730000000     0.203970000000     0.543510000000    -0.394947   
O62      O      0.366750000000     0.175610000000     0.727280000000    -0.395137   
O63      O      0.394890000000     0.157690000000     0.608900000000    -0.397247   
O64      O      0.332650000000     0.222790000000     0.660050000000    -0.393628   
O65      O      0.002800000000     0.437890000000     0.940850000000    -0.389829   
O66      O      0.944780000000     0.506790000000     0.994850000000    -0.395686   
O67      O      0.969680000000     0.486660000000     0.877630000000    -0.39776    
O68      O      0.976190000000     0.458190000000     0.059610000000    -0.396697   
O69      O      0.041330000000     0.517880000000     0.068850000000    -0.391044   
O70      O      0.036190000000     0.544880000000     0.883500000000    -0.390795   
O71      O      0.009870000000     0.566760000000     0.001420000000    -0.391752   
O72      O      0.067820000000     0.497430000000     0.951870000000    -0.395823   
O73      O      0.612470000000     0.830500000000     0.346680000000    -0.403123   
O74      O      0.668240000000     0.757510000000     0.309510000000    -0.396563   
O75      O      0.637530000000     0.780760000000     0.421720000000    -0.402006   
O76      O      0.642240000000     0.808650000000     0.236070000000    -0.396002   
O77      O      0.709330000000     0.865080000000     0.248240000000    -0.39444    
O78      O      0.703580000000     0.838680000000     0.434560000000    -0.398642   
O79      O      0.734440000000     0.814430000000     0.325250000000    -0.391278   
O80      O      0.677990000000     0.888740000000     0.358800000000    -0.39167    
O81      O      0.769670000000     0.659090000000     0.168810000000    -0.397075   
O82      O      0.844490000000     0.608070000000     0.118900000000    -0.405779   
O83      O      0.822710000000     0.636150000000     0.234070000000    -0.402761   
O84      O      0.791410000000     0.632690000000     0.051010000000    -0.402974   
O85      O      0.845900000000     0.700780000000     0.040570000000    -0.399138   
O86      O      0.881710000000     0.701490000000     0.220280000000    -0.411275   
O87      O      0.900870000000     0.673870000000     0.100870000000    -0.394963   
O88      O      0.828420000000     0.725440000000     0.165810000000    -0.397778   
O89      O      0.508020000000     0.934870000000     0.445850000000    -0.394067   
O90      O      0.438940000000     0.994750000000     0.490410000000    -0.39254    
O91      O      0.460160000000     0.965590000000     0.376070000000    -0.400252   
O92      O      0.486750000000     0.962630000000     0.560190000000    -0.397253   
O93      O      0.547020000000     0.027310000000     0.551410000000    -0.393791   
O94      O      0.519340000000     0.031030000000     0.366890000000    -0.39793    
O95      O      0.499740000000     0.058600000000     0.483070000000    -0.401393   
O96      O      0.568180000000     0.999330000000     0.435070000000    -0.391282   
O97      O      0.337010000000     0.105460000000     0.162460000000    -0.400601   
O98      O      0.391910000000     0.231350000000     0.109690000000    -0.400348   
O99      O      0.366370000000     0.185890000000     0.227410000000    -0.398754   
O100     O      0.363450000000     0.152450000000     0.044220000000    -0.394778   
O101     O      0.296330000000     0.142480000000     0.034960000000    -0.392599   
O102     O      0.300100000000     0.178090000000     0.217640000000    -0.395684   
O103     O      0.325910000000     0.223780000000     0.097720000000    -0.393293   
O104     O      0.271430000000     0.098630000000     0.155340000000    -0.399699   
O105     O      0.489760000000     0.432510000000     0.985770000000    -0.400529   
O106     O      0.560630000000     0.560920000000     0.946510000000    -0.394416   
O107     O      0.537520000000     0.508970000000     0.059590000000    -0.395427   
O108     O      0.512220000000     0.484090000000     0.873510000000    -0.399393   
O109     O      0.452100000000     0.488860000000     0.884410000000    -0.409454   
O110     O      0.478500000000     0.515970000000     0.067510000000    -0.404579   
O111     O      0.500470000000     0.565760000000     0.956040000000    -0.40318    
O112     O      0.430020000000     0.437500000000     0.997530000000    -0.398449   
O113     O      0.229710000000     0.891830000000     0.267240000000    -0.395548   
O114     O      0.163640000000     0.766390000000     0.322440000000    -0.400911   
O115     O      0.180570000000     0.810520000000     0.202760000000    -0.39467    
O116     O      0.211100000000     0.846280000000     0.385750000000    -0.39625    
O117     O      0.151310000000     0.851850000000     0.394700000000    -0.395837   
O118     O      0.120740000000     0.815940000000     0.212520000000    -0.398845   
O119     O      0.102540000000     0.769600000000     0.331260000000    -0.39097    
O120     O      0.169050000000     0.895900000000     0.275510000000    -0.39777    
O121     O      0.063330000000     0.563950000000     0.453230000000    -0.399204   
O122     O      0.000560000000     0.436930000000     0.505270000000    -0.392973   
O123     O      0.032860000000     0.484870000000     0.387110000000    -0.395548   
O124     O      0.032210000000     0.517050000000     0.570160000000    -0.396924   
O125     O      0.968270000000     0.513310000000     0.555970000000    -0.401773   
O126     O      0.968360000000     0.480590000000     0.373200000000    -0.395848   
O127     O      0.937140000000     0.433880000000     0.489310000000    -0.403724   
O128     O      0.999760000000     0.561150000000     0.440510000000    -0.395031   
O129     O      0.896780000000     0.226840000000     0.610400000000    -0.390164   
O130     O      0.832190000000     0.100930000000     0.668960000000    -0.393967   
O131     O      0.850420000000     0.144200000000     0.548950000000    -0.394501   
O132     O      0.877590000000     0.181920000000     0.731460000000    -0.392622   
O133     O      0.816860000000     0.186050000000     0.736530000000    -0.396926   
O134     O      0.789080000000     0.147150000000     0.555000000000    -0.395385   
O135     O      0.770890000000     0.103810000000     0.676510000000    -0.394886   
O136     O      0.834790000000     0.228490000000     0.616480000000    -0.398358   
O137     O      0.673870000000     0.776890000000     0.868120000000    -0.392199   
O138     O      0.734840000000     0.903240000000     0.811060000000    -0.396913   
O139     O      0.710560000000     0.858870000000     0.930200000000    -0.398148   
O140     O      0.699500000000     0.821750000000     0.748010000000    -0.395787   
O141     O      0.634940000000     0.818240000000     0.741920000000    -0.394169   
O142     O      0.645410000000     0.854140000000     0.925060000000    -0.402599   
O143     O      0.670470000000     0.899770000000     0.805490000000    -0.400404   
O144     O      0.610040000000     0.774560000000     0.860420000000    -0.403852   


