data_structure

_audit_creation_method RASPA-1.0
_audit_creation_date 2023-5-23
_audit_author_name 'Poobodin Mano'

_cell_length_a    43.4793
_cell_length_b    43.4795
_cell_length_c    43.2559
_cell_angle_alpha 89.9999
_cell_angle_beta  89.9998
_cell_angle_gamma 90
_cell_volume      81773.5

_symmetry_cell_setting          triclinic
_symmetry_space_group_name_Hall 'P 1'
_symmetry_space_group_name_H-M  'P 1'
_symmetry_Int_Tables_number     1

_symmetry_equiv_pos_as_xyz 'x,y,z'

loop_
_atom_site_label
_atom_site_type_symbol
_atom_site_fract_x
_atom_site_fract_y
_atom_site_fract_z
_atom_site_charge
C1       C      0.507400000000     0.067550000000     0.258790000000     0.403313   
C2       C      0.505010000000     0.444860000000     0.258780000000     0.403651   
C3       C      0.506210000000     0.006200000000     0.320310000000     0.405658   
C4       C      0.506210000000     0.506210000000     0.197320000000     0.406383   
C5       C      0.507310000000     0.194900000000     0.258790000000     0.403238   
C6       C      0.505110000000     0.317500000000     0.258780000000     0.403326   
C7       C      0.506210000000     0.256200000000     0.197370000000     0.405617   
C8       C      0.506210000000     0.256210000000     0.320260000000     0.405697   
C9       C      0.253920000000     0.067520000000     0.258830000000     0.403443   
C10      C      0.258520000000     0.444890000000     0.258820000000     0.403601   
C11      C      0.256220000000     0.006200000000     0.320310000000     0.405759   
C12      C      0.256220000000     0.506210000000     0.197330000000     0.406245   
C13      C      0.253920000000     0.194900000000     0.258830000000     0.403687   
C14      C      0.258520000000     0.317520000000     0.258820000000     0.403697   
C15      C      0.256220000000     0.256210000000     0.197330000000     0.406243   
C16      C      0.256220000000     0.256210000000     0.320320000000     0.406543   
C17      C      0.444900000000     0.003900000000     0.508830000000     0.398423   
C18      C      0.067530000000     0.008500000000     0.008820000000     0.397411   
C19      C      0.506210000000     0.006200000000     0.447330000000     0.401176   
C20      C      0.006220000000     0.006210000000     0.070310000000     0.399979   
C21      C      0.444920000000     0.257300000000     0.508870000000     0.403303   
C22      C      0.067510000000     0.255110000000     0.508860000000     0.4031     
C23      C      0.506210000000     0.256210000000     0.447390000000     0.405365   
C24      C      0.506210000000     0.256210000000     0.070280000000     0.405075   
C25      C      0.194900000000     0.008500000000     0.508820000000     0.398344   
C26      C      0.317530000000     0.003910000000     0.508830000000     0.398641   
C27      C      0.256220000000     0.006200000000     0.447330000000     0.400783   
C28      C      0.256210000000     0.006210000000     0.070320000000     0.40089    
C29      C      0.194870000000     0.255010000000     0.508860000000     0.403857   
C30      C      0.317560000000     0.257400000000     0.508860000000     0.403484   
C31      C      0.256220000000     0.256210000000     0.447340000000     0.406599   
C32      C      0.256210000000     0.256210000000     0.070330000000     0.406022   
C33      C      0.397360000000     0.284750000000     0.507490000000     0.0302354  
C34      C      0.397250000000     0.230590000000     0.010360000000     0.0294202  
C35      C      0.365200000000     0.230650000000     0.010270000000     0.0294008  
C36      C      0.365160000000     0.284820000000     0.507610000000     0.0302728  
C37      C      0.115070000000     0.227660000000     0.507480000000     0.0301154  
C38      C      0.115180000000     0.281820000000     0.510360000000     0.0298555  
C39      C      0.147220000000     0.281760000000     0.510260000000     0.0298347  
C40      C      0.147270000000     0.227590000000     0.507600000000     0.0301713  
C41      C      0.397350000000     0.476090000000     0.508830000000     0.030293   
C42      C      0.397200000000     0.030320000000     0.008830000000     0.0287224  
C43      C      0.365240000000     0.030320000000     0.008830000000     0.0286662  
C44      C      0.365080000000     0.476090000000     0.508840000000     0.0302805  
C45      C      0.115080000000     0.036320000000     0.508820000000     0.0294847  
C46      C      0.115240000000     0.482090000000     0.008810000000     0.0292881  
C47      C      0.147200000000     0.482090000000     0.008810000000     0.0293302  
C48      C      0.147350000000     0.036320000000     0.508820000000     0.0294833  
C49      C      0.236600000000     0.275020000000     0.149960000000     0.0324387  
C50      C      0.275830000000     0.237390000000     0.149950000000     0.0323902  
C51      C      0.274640000000     0.236220000000     0.117700000000     0.0323887  
C52      C      0.237780000000     0.276190000000     0.117710000000     0.0322916  
C53      C      0.274780000000     0.236360000000     0.399950000000     0.0323945  
C54      C      0.237650000000     0.276070000000     0.399950000000     0.0322859  
C55      C      0.236480000000     0.274900000000     0.367700000000     0.0324468  
C56      C      0.275960000000     0.237530000000     0.367700000000     0.0324485  
C57      C      0.236420000000     0.487590000000     0.149950000000     0.0324771  
C58      C      0.276010000000     0.024840000000     0.149950000000     0.031808   
C59      C      0.274840000000     0.026010000000     0.117700000000     0.0315294  
C60      C      0.237580000000     0.486420000000     0.117700000000     0.0323291  
C61      C      0.236430000000     0.987570000000     0.367700000000     0.0360546  
C62      C      0.276020000000     0.524830000000     0.367700000000     0.0324317  
C63      C      0.274850000000     0.526000000000     0.399950000000     0.0323441  
C64      C      0.237600000000     0.986400000000     0.399950000000     0.0355198  
C65      C      0.232100000000     0.365230000000     0.258820000000     0.029738   
C66      C      0.286340000000     0.365070000000     0.258810000000     0.0303152  
C67      C      0.286340000000     0.397350000000     0.258810000000     0.0303321  
C68      C      0.232100000000     0.397190000000     0.258820000000     0.0297631  
C69      C      0.226100000000     0.115070000000     0.258830000000     0.0302446  
C70      C      0.280340000000     0.115230000000     0.258830000000     0.0297144  
C71      C      0.280340000000     0.147190000000     0.258830000000     0.0297207  
C72      C      0.226100000000     0.147350000000     0.258830000000     0.0302672  
C73      C      0.025990000000     0.237560000000     0.149950000000     0.0312217  
C74      C      0.486430000000     0.274840000000     0.149950000000     0.0320709  
C75      C      0.487570000000     0.275980000000     0.117700000000     0.0320108  
C76      C      0.024850000000     0.236420000000     0.117700000000     0.0314402  
C77      C      0.025970000000     0.274860000000     0.367700000000     0.031285   
C78      C      0.486440000000     0.237560000000     0.367700000000     0.0321142  
C79      C      0.487560000000     0.236440000000     0.399950000000     0.0320984  
C80      C      0.024860000000     0.275970000000     0.399950000000     0.0315666  
C81      C      0.026200000000     0.487780000000     0.149940000000     0.0315911  
C82      C      0.486240000000     0.024640000000     0.149940000000     0.0318545  
C83      C      0.487400000000     0.025830000000     0.117690000000     0.0314595  
C84      C      0.025040000000     0.486590000000     0.117690000000     0.0317293  
C85      C      0.026060000000     0.487630000000     0.367690000000     0.0314395  
C86      C      0.486350000000     0.024760000000     0.367690000000     0.0318733  
C87      C      0.487520000000     0.025940000000     0.399940000000     0.0315198  
C88      C      0.024890000000     0.486460000000     0.399940000000     0.0319159  
C89      C      0.477590000000     0.397260000000     0.260040000000     0.0302454  
C90      C      0.031770000000     0.397210000000     0.257380000000     0.0291539  
C91      C      0.031830000000     0.365170000000     0.257280000000     0.0291607  
C92      C      0.477660000000     0.365060000000     0.260160000000     0.0301842  
C93      C      0.034820000000     0.115150000000     0.260050000000     0.0294634  
C94      C      0.480650000000     0.115190000000     0.257390000000     0.0297911  
C95      C      0.480590000000     0.147230000000     0.257290000000     0.0298403  
C96      C      0.034750000000     0.147340000000     0.260170000000     0.0294471  
C97      C      0.507400000000     0.067550000000     0.758790000000     0.403343   
C98      C      0.505010000000     0.444850000000     0.758780000000     0.403585   
C99      C      0.506210000000     0.006200000000     0.820310000000     0.405673   
C100     C      0.506210000000     0.506210000000     0.697320000000     0.406352   
C101     C      0.507310000000     0.194900000000     0.758790000000     0.403228   
C102     C      0.505110000000     0.317500000000     0.758780000000     0.40337    
C103     C      0.506210000000     0.256200000000     0.697370000000     0.405589   
C104     C      0.506210000000     0.256200000000     0.820260000000     0.405431   
C105     C      0.253920000000     0.067520000000     0.758830000000     0.40347    
C106     C      0.258520000000     0.444900000000     0.758820000000     0.403722   
C107     C      0.256220000000     0.006200000000     0.820320000000     0.405643   
C108     C      0.256220000000     0.506210000000     0.697330000000     0.406436   
C109     C      0.253920000000     0.194900000000     0.758830000000     0.403714   
C110     C      0.258520000000     0.317520000000     0.758820000000     0.403723   
C111     C      0.256220000000     0.256210000000     0.697330000000     0.406461   
C112     C      0.256220000000     0.256210000000     0.820320000000     0.406633   
C113     C      0.444900000000     0.003900000000     0.008830000000     0.397659   
C114     C      0.067530000000     0.008500000000     0.508820000000     0.39829    
C115     C      0.506210000000     0.006200000000     0.947330000000     0.400768   
C116     C      0.006220000000     0.006210000000     0.570320000000     0.400205   
C117     C      0.444920000000     0.257300000000     0.008870000000     0.402569   
C118     C      0.067510000000     0.255110000000     0.008860000000     0.402441   
C119     C      0.506210000000     0.256210000000     0.947390000000     0.404968   
C120     C      0.506210000000     0.256200000000     0.570280000000     0.405315   
C121     C      0.194900000000     0.008500000000     0.008820000000     0.3977     
C122     C      0.317530000000     0.003910000000     0.008830000000     0.397693   
C123     C      0.256220000000     0.006200000000     0.947330000000     0.400461   
C124     C      0.256210000000     0.006210000000     0.570320000000     0.401129   
C125     C      0.194870000000     0.255010000000     0.008860000000     0.402956   
C126     C      0.317560000000     0.257400000000     0.008870000000     0.402905   
C127     C      0.256220000000     0.256210000000     0.947340000000     0.406099   
C128     C      0.256210000000     0.256200000000     0.570330000000     0.406521   
C129     C      0.397350000000     0.284750000000     0.007490000000     0.0297476  
C130     C      0.397250000000     0.230590000000     0.510360000000     0.0298592  
C131     C      0.365200000000     0.230650000000     0.510270000000     0.0298333  
C132     C      0.365160000000     0.284820000000     0.007610000000     0.0298503  
C133     C      0.115070000000     0.227660000000     0.007480000000     0.0296746  
C134     C      0.115180000000     0.281820000000     0.010360000000     0.0294132  
C135     C      0.147220000000     0.281760000000     0.010260000000     0.0294167  
C136     C      0.147270000000     0.227590000000     0.007600000000     0.029723   
C137     C      0.397350000000     0.476090000000     0.008840000000     0.0298451  
C138     C      0.397200000000     0.030320000000     0.508830000000     0.0291363  
C139     C      0.365230000000     0.030320000000     0.508830000000     0.0291605  
C140     C      0.365080000000     0.476090000000     0.008840000000     0.029881   
C141     C      0.115080000000     0.036320000000     0.008820000000     0.0290417  
C142     C      0.115240000000     0.482090000000     0.508810000000     0.0297197  
C143     C      0.147200000000     0.482090000000     0.508810000000     0.029787   
C144     C      0.147350000000     0.036320000000     0.008820000000     0.0290541  
C145     C      0.236600000000     0.275020000000     0.649960000000     0.032373   
C146     C      0.275830000000     0.237390000000     0.649950000000     0.032362   
C147     C      0.274640000000     0.236220000000     0.617700000000     0.0323854  
C148     C      0.237780000000     0.276180000000     0.617710000000     0.0323783  
C149     C      0.274790000000     0.236360000000     0.899960000000     0.0327395  
C150     C      0.237650000000     0.276070000000     0.899960000000     0.0326983  
C151     C      0.236480000000     0.274900000000     0.867710000000     0.0327254  
C152     C      0.275960000000     0.237530000000     0.867710000000     0.0327623  
C153     C      0.236420000000     0.487590000000     0.649950000000     0.0324588  
C154     C      0.276010000000     0.024840000000     0.649950000000     0.0317886  
C155     C      0.274840000000     0.026010000000     0.617700000000     0.0315165  
C156     C      0.237580000000     0.486420000000     0.617700000000     0.032326   
C157     C      0.236430000000     0.987570000000     0.867700000000     0.0364078  
C158     C      0.276020000000     0.524830000000     0.867700000000     0.032683   
C159     C      0.274850000000     0.526000000000     0.899950000000     0.0327625  
C160     C      0.237600000000     0.986400000000     0.899950000000     0.0359273  
C161     C      0.232100000000     0.365230000000     0.758820000000     0.0297918  
C162     C      0.286340000000     0.365070000000     0.758810000000     0.0303771  
C163     C      0.286340000000     0.397350000000     0.758810000000     0.0303749  
C164     C      0.232100000000     0.397190000000     0.758820000000     0.0297996  
C165     C      0.226100000000     0.115070000000     0.758830000000     0.0303017  
C166     C      0.280340000000     0.115230000000     0.758830000000     0.0297642  
C167     C      0.280340000000     0.147190000000     0.758840000000     0.0297707  
C168     C      0.226100000000     0.147350000000     0.758830000000     0.0303245  
C169     C      0.025990000000     0.237560000000     0.649950000000     0.0311983  
C170     C      0.486430000000     0.274840000000     0.649950000000     0.032048   
C171     C      0.487570000000     0.275980000000     0.617700000000     0.0319951  
C172     C      0.024850000000     0.236420000000     0.617700000000     0.0314264  
C173     C      0.025970000000     0.274860000000     0.867700000000     0.0316138  
C174     C      0.486440000000     0.237560000000     0.867700000000     0.0324048  
C175     C      0.487560000000     0.236440000000     0.899950000000     0.0324994  
C176     C      0.024860000000     0.275970000000     0.899950000000     0.031963   
C177     C      0.026200000000     0.487780000000     0.649940000000     0.031554   
C178     C      0.486240000000     0.024640000000     0.649940000000     0.0318209  
C179     C      0.487400000000     0.025830000000     0.617690000000     0.0314684  
C180     C      0.025040000000     0.486590000000     0.617690000000     0.031746   
C181     C      0.026060000000     0.487630000000     0.867690000000     0.0317631  
C182     C      0.486350000000     0.024760000000     0.867690000000     0.0321857  
C183     C      0.487520000000     0.025940000000     0.899940000000     0.031903   
C184     C      0.024890000000     0.486460000000     0.899940000000     0.0322971  
C185     C      0.477590000000     0.397250000000     0.760030000000     0.0302675  
C186     C      0.031770000000     0.397210000000     0.757380000000     0.0292151  
C187     C      0.031830000000     0.365170000000     0.757280000000     0.0292075  
C188     C      0.477660000000     0.365060000000     0.760160000000     0.0302497  
C189     C      0.034820000000     0.115150000000     0.760050000000     0.0295228  
C190     C      0.480650000000     0.115190000000     0.757390000000     0.029841   
C191     C      0.480590000000     0.147230000000     0.757290000000     0.0298864  
C192     C      0.034750000000     0.147340000000     0.760170000000     0.0295057  
C193     C      0.507400000000     0.567550000000     0.258790000000     0.403552   
C194     C      0.505010000000     0.944850000000     0.258780000000     0.40308    
C195     C      0.506210000000     0.506200000000     0.320310000000     0.406249   
C196     C      0.506210000000     0.006210000000     0.197320000000     0.405778   
C197     C      0.507310000000     0.694900000000     0.258790000000     0.403203   
C198     C      0.505110000000     0.817500000000     0.258780000000     0.403391   
C199     C      0.506210000000     0.756200000000     0.197370000000     0.405613   
C200     C      0.506210000000     0.756200000000     0.320260000000     0.405703   
C201     C      0.253920000000     0.567520000000     0.258830000000     0.403684   
C202     C      0.258520000000     0.944900000000     0.258820000000     0.403218   
C203     C      0.256220000000     0.506200000000     0.320310000000     0.406327   
C204     C      0.256220000000     0.006210000000     0.197330000000     0.405622   
C205     C      0.253920000000     0.694890000000     0.258830000000     0.403588   
C206     C      0.258520000000     0.817520000000     0.258820000000     0.403734   
C207     C      0.256220000000     0.756210000000     0.197330000000     0.406246   
C208     C      0.256220000000     0.756210000000     0.320320000000     0.406548   
C209     C      0.444900000000     0.503900000000     0.508830000000     0.403701   
C210     C      0.067530000000     0.508500000000     0.008820000000     0.402774   
C211     C      0.506210000000     0.506200000000     0.447330000000     0.40655    
C212     C      0.006220000000     0.506210000000     0.070310000000     0.40532    
C213     C      0.444920000000     0.757300000000     0.508870000000     0.403296   
C214     C      0.067510000000     0.755110000000     0.508860000000     0.403086   
C215     C      0.506210000000     0.756210000000     0.447390000000     0.405597   
C216     C      0.506210000000     0.756200000000     0.070280000000     0.405064   
C217     C      0.194900000000     0.508510000000     0.508820000000     0.403706   
C218     C      0.317530000000     0.503910000000     0.508830000000     0.403676   
C219     C      0.256220000000     0.506200000000     0.447330000000     0.406146   
C220     C      0.256210000000     0.506210000000     0.070320000000     0.406247   
C221     C      0.194870000000     0.755010000000     0.508860000000     0.403596   
C222     C      0.317560000000     0.757400000000     0.508860000000     0.403468   
C223     C      0.256220000000     0.756210000000     0.447340000000     0.406582   
C224     C      0.256210000000     0.756200000000     0.070330000000     0.406255   
C225     C      0.397360000000     0.784750000000     0.507490000000     0.0302526  
C226     C      0.397250000000     0.730590000000     0.010360000000     0.0294127  
C227     C      0.365200000000     0.730650000000     0.010270000000     0.0293938  
C228     C      0.365160000000     0.784820000000     0.507610000000     0.0302902  
C229     C      0.115070000000     0.727660000000     0.507480000000     0.030117   
C230     C      0.115180000000     0.781830000000     0.510360000000     0.0297995  
C231     C      0.147220000000     0.781770000000     0.510260000000     0.029804   
C232     C      0.147270000000     0.727590000000     0.507600000000     0.0301613  
C233     C      0.397350000000     0.976090000000     0.508840000000     0.0335573  
C234     C      0.397200000000     0.530320000000     0.008830000000     0.0293648  
C235     C      0.365240000000     0.530320000000     0.008830000000     0.0293256  
C236     C      0.365080000000     0.976090000000     0.508840000000     0.033608   
C237     C      0.115080000000     0.536320000000     0.508820000000     0.0302428  
C238     C      0.115240000000     0.982090000000     0.008810000000     0.0324504  
C239     C      0.147200000000     0.982090000000     0.008810000000     0.0325008  
C240     C      0.147350000000     0.536320000000     0.508820000000     0.0302388  
C241     C      0.236600000000     0.775020000000     0.149960000000     0.0323903  
C242     C      0.275830000000     0.737390000000     0.149950000000     0.0324526  
C243     C      0.274640000000     0.736220000000     0.117700000000     0.0323705  
C244     C      0.237780000000     0.776190000000     0.117710000000     0.0323552  
C245     C      0.274780000000     0.736360000000     0.399950000000     0.0324181  
C246     C      0.237650000000     0.776070000000     0.399950000000     0.0322758  
C247     C      0.236480000000     0.774900000000     0.367700000000     0.0325354  
C248     C      0.275960000000     0.737530000000     0.367700000000     0.0324022  
C249     C      0.236420000000     0.987580000000     0.149950000000     0.0361181  
C250     C      0.276010000000     0.524840000000     0.149950000000     0.0323646  
C251     C      0.274840000000     0.526010000000     0.117700000000     0.0323467  
C252     C      0.237580000000     0.986420000000     0.117700000000     0.0355122  
C253     C      0.236430000000     0.487570000000     0.367700000000     0.0323177  
C254     C      0.276020000000     0.024830000000     0.367700000000     0.0318997  
C255     C      0.274860000000     0.026000000000     0.399950000000     0.0314953  
C256     C      0.237600000000     0.486400000000     0.399950000000     0.0324285  
C257     C      0.232100000000     0.865230000000     0.258820000000     0.0298664  
C258     C      0.286340000000     0.865070000000     0.258810000000     0.0304667  
C259     C      0.286340000000     0.897350000000     0.258810000000     0.0305126  
C260     C      0.232100000000     0.897190000000     0.258820000000     0.0299044  
C261     C      0.226100000000     0.615070000000     0.258830000000     0.0302843  
C262     C      0.280340000000     0.615230000000     0.258830000000     0.029733   
C263     C      0.280340000000     0.647190000000     0.258830000000     0.0297398  
C264     C      0.226100000000     0.647350000000     0.258830000000     0.030303   
C265     C      0.025990000000     0.737560000000     0.149950000000     0.031228   
C266     C      0.486430000000     0.774840000000     0.149950000000     0.0320794  
C267     C      0.487570000000     0.775980000000     0.117700000000     0.0320362  
C268     C      0.024850000000     0.736420000000     0.117700000000     0.0314291  
C269     C      0.025970000000     0.774860000000     0.367700000000     0.0313081  
C270     C      0.486440000000     0.737560000000     0.367700000000     0.0321051  
C271     C      0.487560000000     0.736440000000     0.399950000000     0.0321178  
C272     C      0.024860000000     0.775970000000     0.399950000000     0.031592   
C273     C      0.026200000000     0.987780000000     0.149940000000     0.0353064  
C274     C      0.486240000000     0.524640000000     0.149940000000     0.032361   
C275     C      0.487400000000     0.525820000000     0.117690000000     0.0323718  
C276     C      0.025040000000     0.986590000000     0.117690000000     0.0348648  
C277     C      0.026060000000     0.987630000000     0.367690000000     0.0351784  
C278     C      0.486350000000     0.524760000000     0.367690000000     0.0324246  
C279     C      0.487520000000     0.525940000000     0.399940000000     0.0323472  
C280     C      0.024890000000     0.986460000000     0.399940000000     0.0350455  
C281     C      0.477590000000     0.897250000000     0.260040000000     0.0304192  
C282     C      0.031770000000     0.897210000000     0.257380000000     0.0293197  
C283     C      0.031830000000     0.865170000000     0.257280000000     0.0292842  
C284     C      0.477660000000     0.865060000000     0.260160000000     0.0303305  
C285     C      0.034820000000     0.615150000000     0.260050000000     0.0295029  
C286     C      0.480650000000     0.615190000000     0.257390000000     0.0298074  
C287     C      0.480590000000     0.647240000000     0.257290000000     0.029878   
C288     C      0.034750000000     0.647340000000     0.260170000000     0.0294683  
C289     C      0.507400000000     0.567550000000     0.758790000000     0.403583   
C290     C      0.505010000000     0.944860000000     0.758780000000     0.403202   
C291     C      0.506210000000     0.506200000000     0.820310000000     0.406268   
C292     C      0.506210000000     0.006210000000     0.697320000000     0.405759   
C293     C      0.507300000000     0.694900000000     0.758790000000     0.403322   
C294     C      0.505110000000     0.817500000000     0.758780000000     0.40337    
C295     C      0.506210000000     0.756200000000     0.697370000000     0.405587   
C296     C      0.506210000000     0.756210000000     0.820260000000     0.405462   
C297     C      0.253920000000     0.567520000000     0.758830000000     0.403709   
C298     C      0.258520000000     0.944890000000     0.758820000000     0.403152   
C299     C      0.256220000000     0.506210000000     0.820320000000     0.406357   
C300     C      0.256220000000     0.006210000000     0.697330000000     0.40584    
C301     C      0.253920000000     0.694900000000     0.758830000000     0.403707   
C302     C      0.258520000000     0.817520000000     0.758820000000     0.403759   
C303     C      0.256220000000     0.756210000000     0.697330000000     0.40644    
C304     C      0.256220000000     0.756210000000     0.820320000000     0.406664   
C305     C      0.444900000000     0.503900000000     0.008830000000     0.402924   
C306     C      0.067530000000     0.508500000000     0.508820000000     0.403419   
C307     C      0.506210000000     0.506200000000     0.947330000000     0.406129   
C308     C      0.006220000000     0.506210000000     0.570320000000     0.405554   
C309     C      0.444920000000     0.757300000000     0.008870000000     0.402562   
C310     C      0.067510000000     0.755110000000     0.008860000000     0.402429   
C311     C      0.506210000000     0.756210000000     0.947390000000     0.405198   
C312     C      0.506210000000     0.756200000000     0.570280000000     0.405305   
C313     C      0.194900000000     0.508500000000     0.008820000000     0.403064   
C314     C      0.317530000000     0.503910000000     0.008830000000     0.403187   
C315     C      0.256220000000     0.506200000000     0.947330000000     0.405813   
C316     C      0.256210000000     0.506210000000     0.570320000000     0.406563   
C317     C      0.194870000000     0.755010000000     0.008860000000     0.402944   
C318     C      0.317560000000     0.757400000000     0.008870000000     0.402899   
C319     C      0.256220000000     0.756210000000     0.947340000000     0.406092   
C320     C      0.256210000000     0.756210000000     0.570330000000     0.406261   
C321     C      0.397350000000     0.784750000000     0.007490000000     0.029764   
C322     C      0.397250000000     0.730590000000     0.510360000000     0.0298526  
C323     C      0.365200000000     0.730650000000     0.510270000000     0.0298262  
C324     C      0.365160000000     0.784820000000     0.007610000000     0.0298678  
C325     C      0.115070000000     0.727660000000     0.007480000000     0.0296725  
C326     C      0.115180000000     0.781820000000     0.010360000000     0.0294305  
C327     C      0.147220000000     0.781760000000     0.010260000000     0.0293889  
C328     C      0.147270000000     0.727590000000     0.007600000000     0.0297177  
C329     C      0.397350000000     0.976090000000     0.008840000000     0.033144   
C330     C      0.397200000000     0.530320000000     0.508830000000     0.0297956  
C331     C      0.365230000000     0.530320000000     0.508830000000     0.0298013  
C332     C      0.365080000000     0.976090000000     0.008840000000     0.0331189  
C333     C      0.115080000000     0.536320000000     0.008820000000     0.0297985  
C334     C      0.115240000000     0.982090000000     0.508810000000     0.0329086  
C335     C      0.147200000000     0.982090000000     0.508810000000     0.0329414  
C336     C      0.147350000000     0.536320000000     0.008820000000     0.0298161  
C337     C      0.236600000000     0.775020000000     0.649960000000     0.0325195  
C338     C      0.275830000000     0.737390000000     0.649950000000     0.0323438  
C339     C      0.274640000000     0.736220000000     0.617710000000     0.0323671  
C340     C      0.237780000000     0.776190000000     0.617710000000     0.0322635  
C341     C      0.274790000000     0.736360000000     0.899960000000     0.0327421  
C342     C      0.237650000000     0.776070000000     0.899960000000     0.0327176  
C343     C      0.236480000000     0.774900000000     0.867710000000     0.0327434  
C344     C      0.275960000000     0.737530000000     0.867710000000     0.0327731  
C345     C      0.236420000000     0.987580000000     0.649950000000     0.0361037  
C346     C      0.276010000000     0.524840000000     0.649950000000     0.0323451  
C347     C      0.274840000000     0.526010000000     0.617700000000     0.0323378  
C348     C      0.237580000000     0.986420000000     0.617700000000     0.0355025  
C349     C      0.236430000000     0.487570000000     0.867700000000     0.0326999  
C350     C      0.276020000000     0.024830000000     0.867700000000     0.0321477  
C351     C      0.274850000000     0.026000000000     0.899950000000     0.0319348  
C352     C      0.237600000000     0.486400000000     0.899950000000     0.0327899  
C353     C      0.232100000000     0.865230000000     0.758820000000     0.029911   
C354     C      0.286340000000     0.865070000000     0.758810000000     0.0305183  
C355     C      0.286340000000     0.897350000000     0.758810000000     0.0305841  
C356     C      0.232100000000     0.897190000000     0.758820000000     0.0299671  
C357     C      0.226100000000     0.615070000000     0.758830000000     0.0303458  
C358     C      0.280340000000     0.615230000000     0.758840000000     0.0297868  
C359     C      0.280340000000     0.647190000000     0.758840000000     0.0297761  
C360     C      0.226100000000     0.647350000000     0.758830000000     0.0303452  
C361     C      0.025990000000     0.737560000000     0.649950000000     0.0311966  
C362     C      0.486430000000     0.774840000000     0.649950000000     0.0320614  
C363     C      0.487570000000     0.775980000000     0.617700000000     0.032011   
C364     C      0.024850000000     0.736420000000     0.617700000000     0.0314347  
C365     C      0.025970000000     0.774860000000     0.867700000000     0.0316196  
C366     C      0.486440000000     0.737560000000     0.867700000000     0.0324214  
C367     C      0.487560000000     0.736440000000     0.899950000000     0.03251    
C368     C      0.024860000000     0.775970000000     0.899950000000     0.031986   
C369     C      0.026200000000     0.987780000000     0.649940000000     0.035272   
C370     C      0.486240000000     0.524640000000     0.649940000000     0.0323749  
C371     C      0.487400000000     0.525830000000     0.617690000000     0.0322952  
C372     C      0.025040000000     0.986590000000     0.617690000000     0.0348839  
C373     C      0.026060000000     0.987630000000     0.867690000000     0.0354552  
C374     C      0.486350000000     0.524760000000     0.867690000000     0.0327381  
C375     C      0.487520000000     0.525940000000     0.899940000000     0.0327277  
C376     C      0.024890000000     0.986460000000     0.899940000000     0.0354334  
C377     C      0.477590000000     0.897260000000     0.760030000000     0.0304792  
C378     C      0.031770000000     0.897210000000     0.757380000000     0.0293616  
C379     C      0.031830000000     0.865170000000     0.757280000000     0.0293302  
C380     C      0.477660000000     0.865060000000     0.760160000000     0.0303904  
C381     C      0.034820000000     0.615150000000     0.760050000000     0.0295677  
C382     C      0.480650000000     0.615190000000     0.757390000000     0.0298671  
C383     C      0.480590000000     0.647230000000     0.757290000000     0.0298885  
C384     C      0.034750000000     0.647350000000     0.760170000000     0.0295624  
C385     C      0.007400000000     0.067550000000     0.258790000000     0.39795    
C386     C      0.005020000000     0.444860000000     0.258780000000     0.398387   
C387     C      0.006210000000     0.006200000000     0.320310000000     0.400312   
C388     C      0.006210000000     0.506210000000     0.197320000000     0.401016   
C389     C      0.007300000000     0.194900000000     0.258790000000     0.397887   
C390     C      0.005110000000     0.317500000000     0.258780000000     0.398017   
C391     C      0.006210000000     0.256200000000     0.197370000000     0.400244   
C392     C      0.006210000000     0.256210000000     0.320260000000     0.400101   
C393     C      0.753920000000     0.067520000000     0.258830000000     0.403429   
C394     C      0.758520000000     0.444890000000     0.258820000000     0.403592   
C395     C      0.756220000000     0.006200000000     0.320310000000     0.405721   
C396     C      0.756210000000     0.506210000000     0.197330000000     0.406234   
C397     C      0.753920000000     0.194900000000     0.258830000000     0.403657   
C398     C      0.758520000000     0.317520000000     0.258820000000     0.403673   
C399     C      0.756220000000     0.256210000000     0.197330000000     0.406456   
C400     C      0.756220000000     0.256210000000     0.320320000000     0.406518   
C401     C      0.944900000000     0.003900000000     0.508830000000     0.397929   
C402     C      0.567530000000     0.008500000000     0.008820000000     0.397381   
C403     C      0.006210000000     0.006200000000     0.447330000000     0.400597   
C404     C      0.506220000000     0.006210000000     0.070310000000     0.40055    
C405     C      0.944910000000     0.257300000000     0.508870000000     0.402657   
C406     C      0.567510000000     0.255110000000     0.508860000000     0.40333    
C407     C      0.006210000000     0.256210000000     0.447390000000     0.404784   
C408     C      0.006210000000     0.256210000000     0.070280000000     0.404483   
C409     C      0.694900000000     0.008500000000     0.508820000000     0.398199   
C410     C      0.817530000000     0.003910000000     0.508830000000     0.398646   
C411     C      0.756220000000     0.006200000000     0.447330000000     0.401039   
C412     C      0.756210000000     0.006210000000     0.070320000000     0.400892   
C413     C      0.694870000000     0.255010000000     0.508860000000     0.403845   
C414     C      0.817560000000     0.257400000000     0.508860000000     0.403598   
C415     C      0.756220000000     0.256210000000     0.447340000000     0.406596   
C416     C      0.756210000000     0.256210000000     0.070330000000     0.406022   
C417     C      0.897360000000     0.284750000000     0.507490000000     0.030414   
C418     C      0.897250000000     0.230590000000     0.010360000000     0.0296077  
C419     C      0.865200000000     0.230650000000     0.010270000000     0.0295223  
C420     C      0.865160000000     0.284820000000     0.507610000000     0.0304171  
C421     C      0.615070000000     0.227660000000     0.507480000000     0.0301495  
C422     C      0.615180000000     0.281820000000     0.510360000000     0.0298829  
C423     C      0.647220000000     0.281760000000     0.510260000000     0.0298445  
C424     C      0.647270000000     0.227590000000     0.507600000000     0.0301873  
C425     C      0.897350000000     0.476090000000     0.508830000000     0.0304706  
C426     C      0.897200000000     0.030320000000     0.008830000000     0.0288688  
C427     C      0.865240000000     0.030320000000     0.008830000000     0.0287972  
C428     C      0.865080000000     0.476090000000     0.508830000000     0.0304496  
C429     C      0.615080000000     0.036320000000     0.508820000000     0.0295091  
C430     C      0.615240000000     0.482090000000     0.008810000000     0.029312   
C431     C      0.647200000000     0.482090000000     0.008810000000     0.0293381  
C432     C      0.647350000000     0.036320000000     0.508820000000     0.0295125  
C433     C      0.736600000000     0.275020000000     0.149960000000     0.0325094  
C434     C      0.775830000000     0.237390000000     0.149950000000     0.0323586  
C435     C      0.774640000000     0.236220000000     0.117700000000     0.0324227  
C436     C      0.737780000000     0.276190000000     0.117710000000     0.0322679  
C437     C      0.774790000000     0.236360000000     0.399950000000     0.032335   
C438     C      0.737660000000     0.276070000000     0.399950000000     0.0323604  
C439     C      0.736480000000     0.274900000000     0.367700000000     0.032432   
C440     C      0.775960000000     0.237530000000     0.367700000000     0.0325044  
C441     C      0.736420000000     0.487590000000     0.149950000000     0.0324694  
C442     C      0.776010000000     0.024840000000     0.149950000000     0.0318368  
C443     C      0.774840000000     0.026010000000     0.117700000000     0.0315394  
C444     C      0.737580000000     0.486420000000     0.117700000000     0.032339   
C445     C      0.736430000000     0.987570000000     0.367700000000     0.0360428  
C446     C      0.776020000000     0.524830000000     0.367700000000     0.0324227  
C447     C      0.774850000000     0.526000000000     0.399950000000     0.0324281  
C448     C      0.737600000000     0.986400000000     0.399950000000     0.0355419  
C449     C      0.732100000000     0.365230000000     0.258820000000     0.0297322  
C450     C      0.786340000000     0.365070000000     0.258810000000     0.0303306  
C451     C      0.786340000000     0.397350000000     0.258810000000     0.0303485  
C452     C      0.732100000000     0.397190000000     0.258820000000     0.0297588  
C453     C      0.726100000000     0.115070000000     0.258830000000     0.0302396  
C454     C      0.780340000000     0.115230000000     0.258830000000     0.0297188  
C455     C      0.780340000000     0.147190000000     0.258830000000     0.0297236  
C456     C      0.726100000000     0.147350000000     0.258830000000     0.0302613  
C457     C      0.525990000000     0.237560000000     0.149950000000     0.0320602  
C458     C      0.986430000000     0.274840000000     0.149950000000     0.0352294  
C459     C      0.987570000000     0.275980000000     0.117700000000     0.0357272  
C460     C      0.524850000000     0.236420000000     0.117700000000     0.0320089  
C461     C      0.525970000000     0.274860000000     0.367700000000     0.0321274  
C462     C      0.986440000000     0.237560000000     0.367700000000     0.0352418  
C463     C      0.987560000000     0.236440000000     0.399950000000     0.0358281  
C464     C      0.524860000000     0.275970000000     0.399950000000     0.0321189  
C465     C      0.526200000000     0.487780000000     0.149940000000     0.0324187  
C466     C      0.986240000000     0.024640000000     0.149940000000     0.0349536  
C467     C      0.987400000000     0.025820000000     0.117690000000     0.0352628  
C468     C      0.525040000000     0.486590000000     0.117690000000     0.0323017  
C469     C      0.526060000000     0.487630000000     0.367690000000     0.0322647  
C470     C      0.986350000000     0.024760000000     0.367690000000     0.0350205  
C471     C      0.987520000000     0.025940000000     0.399940000000     0.0352426  
C472     C      0.524890000000     0.486460000000     0.399940000000     0.0324725  
C473     C      0.977590000000     0.397260000000     0.260040000000     0.0335083  
C474     C      0.531770000000     0.397210000000     0.257380000000     0.0297813  
C475     C      0.531820000000     0.365170000000     0.257280000000     0.029954   
C476     C      0.977660000000     0.365060000000     0.260160000000     0.033425   
C477     C      0.534820000000     0.115150000000     0.260050000000     0.0302102  
C478     C      0.980650000000     0.115190000000     0.257390000000     0.0329775  
C479     C      0.980590000000     0.147230000000     0.257290000000     0.03304    
C480     C      0.534750000000     0.147340000000     0.260170000000     0.0301649  
C481     C      0.007400000000     0.067550000000     0.758790000000     0.397996   
C482     C      0.005020000000     0.444850000000     0.758780000000     0.398337   
C483     C      0.006210000000     0.006200000000     0.820310000000     0.400344   
C484     C      0.006210000000     0.506210000000     0.697320000000     0.400996   
C485     C      0.007300000000     0.194900000000     0.758790000000     0.397921   
C486     C      0.005110000000     0.317500000000     0.758780000000     0.398056   
C487     C      0.006210000000     0.256200000000     0.697370000000     0.400232   
C488     C      0.006210000000     0.256200000000     0.820260000000     0.400088   
C489     C      0.753920000000     0.067520000000     0.758830000000     0.403475   
C490     C      0.758520000000     0.444900000000     0.758820000000     0.403734   
C491     C      0.756220000000     0.006200000000     0.820320000000     0.406017   
C492     C      0.756220000000     0.506210000000     0.697330000000     0.406204   
C493     C      0.753920000000     0.194900000000     0.758830000000     0.403678   
C494     C      0.758520000000     0.317520000000     0.758820000000     0.403693   
C495     C      0.756220000000     0.256210000000     0.697330000000     0.406188   
C496     C      0.756220000000     0.256210000000     0.820320000000     0.406601   
C497     C      0.944900000000     0.003900000000     0.008830000000     0.397289   
C498     C      0.567530000000     0.008500000000     0.508820000000     0.398197   
C499     C      0.006210000000     0.006200000000     0.947330000000     0.400197   
C500     C      0.506220000000     0.006210000000     0.570320000000     0.400781   
C501     C      0.944920000000     0.257310000000     0.008870000000     0.402172   
C502     C      0.567510000000     0.255110000000     0.008860000000     0.402676   
C503     C      0.006210000000     0.256210000000     0.947390000000     0.404615   
C504     C      0.006210000000     0.256200000000     0.570280000000     0.404732   
C505     C      0.694900000000     0.008500000000     0.008820000000     0.397691   
C506     C      0.817530000000     0.003910000000     0.008830000000     0.397734   
C507     C      0.756220000000     0.006200000000     0.947330000000     0.400458   
C508     C      0.756210000000     0.006210000000     0.570320000000     0.401141   
C509     C      0.694870000000     0.255010000000     0.008860000000     0.40295    
C510     C      0.817560000000     0.257400000000     0.008870000000     0.402941   
C511     C      0.756220000000     0.256210000000     0.947340000000     0.406103   
C512     C      0.756210000000     0.256200000000     0.570330000000     0.406518   
C513     C      0.897360000000     0.284750000000     0.007490000000     0.0299554  
C514     C      0.897250000000     0.230590000000     0.510360000000     0.0300385  
C515     C      0.865200000000     0.230650000000     0.510270000000     0.0299599  
C516     C      0.865160000000     0.284820000000     0.007610000000     0.0299857  
C517     C      0.615070000000     0.227660000000     0.007480000000     0.0297089  
C518     C      0.615180000000     0.281820000000     0.010360000000     0.0294425  
C519     C      0.647220000000     0.281760000000     0.010260000000     0.0294268  
C520     C      0.647270000000     0.227590000000     0.007600000000     0.029739   
C521     C      0.897350000000     0.476090000000     0.008840000000     0.0300302  
C522     C      0.897200000000     0.030320000000     0.508830000000     0.0292976  
C523     C      0.865240000000     0.030320000000     0.508830000000     0.0292483  
C524     C      0.865080000000     0.476090000000     0.008840000000     0.0300254  
C525     C      0.615080000000     0.036320000000     0.008820000000     0.0290675  
C526     C      0.615240000000     0.482090000000     0.508810000000     0.0297342  
C527     C      0.647200000000     0.482090000000     0.508810000000     0.0298039  
C528     C      0.647350000000     0.036320000000     0.008820000000     0.0290777  
C529     C      0.736600000000     0.275020000000     0.649960000000     0.0323045  
C530     C      0.775830000000     0.237390000000     0.649950000000     0.0324268  
C531     C      0.774640000000     0.236220000000     0.617700000000     0.0323806  
C532     C      0.737780000000     0.276180000000     0.617710000000     0.0324131  
C533     C      0.774790000000     0.236360000000     0.899960000000     0.0327551  
C534     C      0.737650000000     0.276070000000     0.899960000000     0.0327058  
C535     C      0.736480000000     0.274900000000     0.867710000000     0.0327282  
C536     C      0.775960000000     0.237530000000     0.867710000000     0.0327802  
C537     C      0.736420000000     0.487590000000     0.649950000000     0.03244    
C538     C      0.776010000000     0.024840000000     0.649950000000     0.0317953  
C539     C      0.774840000000     0.026010000000     0.617700000000     0.0315365  
C540     C      0.737580000000     0.486420000000     0.617700000000     0.0323575  
C541     C      0.736430000000     0.987570000000     0.867700000000     0.036399   
C542     C      0.776020000000     0.524830000000     0.867700000000     0.0327506  
C543     C      0.774850000000     0.526000000000     0.899950000000     0.0328002  
C544     C      0.737600000000     0.986400000000     0.899950000000     0.0358837  
C545     C      0.732100000000     0.365230000000     0.758820000000     0.0297708  
C546     C      0.786340000000     0.365070000000     0.758810000000     0.0303893  
C547     C      0.786340000000     0.397350000000     0.758810000000     0.0303929  
C548     C      0.732100000000     0.397190000000     0.758820000000     0.0298272  
C549     C      0.726100000000     0.115070000000     0.758830000000     0.0302979  
C550     C      0.780340000000     0.115230000000     0.758830000000     0.0297693  
C551     C      0.780340000000     0.147190000000     0.758840000000     0.0297721  
C552     C      0.726100000000     0.147350000000     0.758830000000     0.0303177  
C553     C      0.525990000000     0.237560000000     0.649950000000     0.0320368  
C554     C      0.986430000000     0.274840000000     0.649950000000     0.0351888  
C555     C      0.987570000000     0.275980000000     0.617700000000     0.0357264  
C556     C      0.524850000000     0.236420000000     0.617700000000     0.0319943  
C557     C      0.525970000000     0.274860000000     0.867700000000     0.0324433  
C558     C      0.986440000000     0.237560000000     0.867700000000     0.0355258  
C559     C      0.987560000000     0.236440000000     0.899950000000     0.0362101  
C560     C      0.524860000000     0.275970000000     0.899950000000     0.0325104  
C561     C      0.526200000000     0.487780000000     0.649940000000     0.0323924  
C562     C      0.986240000000     0.024640000000     0.649940000000     0.0349118  
C563     C      0.987400000000     0.025820000000     0.617690000000     0.0352651  
C564     C      0.525040000000     0.486590000000     0.617690000000     0.0323026  
C565     C      0.526060000000     0.487630000000     0.867690000000     0.0326283  
C566     C      0.986350000000     0.024760000000     0.867690000000     0.0353118  
C567     C      0.987520000000     0.025940000000     0.899940000000     0.0355773  
C568     C      0.524900000000     0.486460000000     0.899940000000     0.0327709  
C569     C      0.977590000000     0.397250000000     0.760030000000     0.0335384  
C570     C      0.531770000000     0.397210000000     0.757380000000     0.0298995  
C571     C      0.531830000000     0.365170000000     0.757280000000     0.0298921  
C572     C      0.977660000000     0.365060000000     0.760160000000     0.0334705  
C573     C      0.534820000000     0.115150000000     0.760050000000     0.0302693  
C574     C      0.980650000000     0.115190000000     0.757390000000     0.0330159  
C575     C      0.980590000000     0.147230000000     0.757290000000     0.0330758  
C576     C      0.534750000000     0.147340000000     0.760170000000     0.0302189  
C577     C      0.007400000000     0.567550000000     0.258790000000     0.398177   
C578     C      0.005020000000     0.944850000000     0.258780000000     0.397831   
C579     C      0.006210000000     0.506200000000     0.320310000000     0.400886   
C580     C      0.006210000000     0.006210000000     0.197320000000     0.400426   
C581     C      0.007300000000     0.694900000000     0.258790000000     0.397876   
C582     C      0.005110000000     0.817500000000     0.258780000000     0.398058   
C583     C      0.006210000000     0.756200000000     0.197370000000     0.400244   
C584     C      0.006210000000     0.756200000000     0.320260000000     0.400103   
C585     C      0.753920000000     0.567520000000     0.258830000000     0.40367    
C586     C      0.758520000000     0.944900000000     0.258820000000     0.403209   
C587     C      0.756220000000     0.506200000000     0.320310000000     0.406315   
C588     C      0.756210000000     0.006210000000     0.197330000000     0.405637   
C589     C      0.753920000000     0.694890000000     0.258830000000     0.403558   
C590     C      0.758520000000     0.817520000000     0.258820000000     0.403709   
C591     C      0.756220000000     0.756210000000     0.197330000000     0.406457   
C592     C      0.756220000000     0.756210000000     0.320320000000     0.406521   
C593     C      0.944900000000     0.503900000000     0.508830000000     0.40319    
C594     C      0.567530000000     0.508500000000     0.008820000000     0.402992   
C595     C      0.006210000000     0.506200000000     0.447330000000     0.40595    
C596     C      0.506220000000     0.506210000000     0.070310000000     0.406158   
C597     C      0.944910000000     0.757300000000     0.508870000000     0.40265    
C598     C      0.567510000000     0.755110000000     0.508860000000     0.403317   
C599     C      0.006210000000     0.756210000000     0.447390000000     0.405016   
C600     C      0.006210000000     0.756200000000     0.070280000000     0.404471   
C601     C      0.694900000000     0.508510000000     0.508820000000     0.403562   
C602     C      0.817530000000     0.503910000000     0.508830000000     0.403679   
C603     C      0.756220000000     0.506200000000     0.447330000000     0.406399   
C604     C      0.756210000000     0.506210000000     0.070320000000     0.406249   
C605     C      0.694870000000     0.755010000000     0.508860000000     0.403583   
C606     C      0.817560000000     0.757400000000     0.508860000000     0.403581   
C607     C      0.756220000000     0.756210000000     0.447340000000     0.40658    
C608     C      0.756210000000     0.756200000000     0.070330000000     0.406262   
C609     C      0.897360000000     0.784750000000     0.507490000000     0.0304313  
C610     C      0.897250000000     0.730590000000     0.010360000000     0.0295861  
C611     C      0.865200000000     0.730650000000     0.010270000000     0.029521   
C612     C      0.865160000000     0.784820000000     0.507610000000     0.0304344  
C613     C      0.615070000000     0.727660000000     0.507480000000     0.0301528  
C614     C      0.615180000000     0.781830000000     0.510360000000     0.0298408  
C615     C      0.647220000000     0.781770000000     0.510260000000     0.029783   
C616     C      0.647270000000     0.727590000000     0.507600000000     0.0301759  
C617     C      0.897350000000     0.976090000000     0.508840000000     0.0337404  
C618     C      0.897200000000     0.530320000000     0.008830000000     0.029512   
C619     C      0.865240000000     0.530320000000     0.008830000000     0.029456   
C620     C      0.865080000000     0.976090000000     0.508840000000     0.0337422  
C621     C      0.615080000000     0.536320000000     0.508820000000     0.0302808  
C622     C      0.615240000000     0.982090000000     0.008810000000     0.0324695  
C623     C      0.647200000000     0.982090000000     0.008810000000     0.0325144  
C624     C      0.647350000000     0.536320000000     0.508820000000     0.0302616  
C625     C      0.736600000000     0.775020000000     0.149960000000     0.0324176  
C626     C      0.775830000000     0.737390000000     0.149950000000     0.0324144  
C627     C      0.774640000000     0.736220000000     0.117700000000     0.032409   
C628     C      0.737780000000     0.776180000000     0.117710000000     0.03241    
C629     C      0.774790000000     0.736360000000     0.399950000000     0.0323597  
C630     C      0.737660000000     0.776070000000     0.399950000000     0.0323584  
C631     C      0.736480000000     0.774900000000     0.367700000000     0.0325032  
C632     C      0.775960000000     0.737530000000     0.367700000000     0.0324573  
C633     C      0.736420000000     0.987580000000     0.149950000000     0.0361115  
C634     C      0.776010000000     0.524840000000     0.149950000000     0.0323927  
C635     C      0.774840000000     0.526010000000     0.117700000000     0.0323575  
C636     C      0.737580000000     0.986420000000     0.117700000000     0.0355194  
C637     C      0.736430000000     0.487570000000     0.367700000000     0.0323206  
C638     C      0.776020000000     0.024830000000     0.367700000000     0.0318695  
C639     C      0.774850000000     0.026000000000     0.399950000000     0.031604   
C640     C      0.737600000000     0.486400000000     0.399950000000     0.0323996  
C641     C      0.732100000000     0.865230000000     0.258820000000     0.0298604  
C642     C      0.786340000000     0.865070000000     0.258810000000     0.0304817  
C643     C      0.786340000000     0.897350000000     0.258810000000     0.0305287  
C644     C      0.732100000000     0.897190000000     0.258820000000     0.0298999  
C645     C      0.726100000000     0.615070000000     0.258830000000     0.0302793  
C646     C      0.780340000000     0.615230000000     0.258830000000     0.0297374  
C647     C      0.780340000000     0.647190000000     0.258830000000     0.0297427  
C648     C      0.726100000000     0.647350000000     0.258830000000     0.030297   
C649     C      0.525990000000     0.737560000000     0.149950000000     0.0320661  
C650     C      0.986430000000     0.774840000000     0.149950000000     0.0352368  
C651     C      0.987570000000     0.775980000000     0.117700000000     0.0357505  
C652     C      0.524850000000     0.736420000000     0.117700000000     0.0319981  
C653     C      0.525970000000     0.774860000000     0.367700000000     0.0321511  
C654     C      0.986440000000     0.737560000000     0.367700000000     0.035231   
C655     C      0.987560000000     0.736440000000     0.399950000000     0.0358462  
C656     C      0.524860000000     0.775970000000     0.399950000000     0.032144   
C657     C      0.526200000000     0.987780000000     0.149940000000     0.0361528  
C658     C      0.986240000000     0.524640000000     0.149940000000     0.0355131  
C659     C      0.987400000000     0.525820000000     0.117690000000     0.0360957  
C660     C      0.525040000000     0.986590000000     0.117690000000     0.0354274  
C661     C      0.526060000000     0.987630000000     0.367690000000     0.0360115  
C662     C      0.986350000000     0.524760000000     0.367690000000     0.0355862  
C663     C      0.987520000000     0.525940000000     0.399940000000     0.03606    
C664     C      0.524890000000     0.986460000000     0.399940000000     0.0356076  
C665     C      0.977590000000     0.897250000000     0.260040000000     0.0336716  
C666     C      0.531770000000     0.897210000000     0.257380000000     0.0299457  
C667     C      0.531820000000     0.865170000000     0.257280000000     0.0300796  
C668     C      0.977660000000     0.865060000000     0.260160000000     0.0335661  
C669     C      0.534820000000     0.615150000000     0.260050000000     0.0302522  
C670     C      0.980650000000     0.615190000000     0.257390000000     0.0329979  
C671     C      0.980590000000     0.647240000000     0.257290000000     0.0330819  
C672     C      0.534750000000     0.647340000000     0.260170000000     0.030184   
C673     C      0.007400000000     0.567550000000     0.758790000000     0.398104   
C674     C      0.005020000000     0.944860000000     0.758780000000     0.397965   
C675     C      0.006210000000     0.506200000000     0.820310000000     0.400922   
C676     C      0.006210000000     0.006210000000     0.697320000000     0.40042    
C677     C      0.007300000000     0.694900000000     0.758790000000     0.398011   
C678     C      0.005110000000     0.817500000000     0.758780000000     0.398059   
C679     C      0.006210000000     0.756200000000     0.697370000000     0.400231   
C680     C      0.006210000000     0.756210000000     0.820260000000     0.40012    
C681     C      0.753920000000     0.567520000000     0.758830000000     0.403713   
C682     C      0.758520000000     0.944890000000     0.758820000000     0.403164   
C683     C      0.756220000000     0.506210000000     0.820320000000     0.406607   
C684     C      0.756220000000     0.006210000000     0.697330000000     0.405608   
C685     C      0.753920000000     0.694900000000     0.758830000000     0.40369    
C686     C      0.758520000000     0.817520000000     0.758820000000     0.403747   
C687     C      0.756220000000     0.756210000000     0.697330000000     0.406187   
C688     C      0.756220000000     0.756210000000     0.820320000000     0.406649   
C689     C      0.944900000000     0.503900000000     0.008830000000     0.402536   
C690     C      0.567530000000     0.508500000000     0.508820000000     0.403569   
C691     C      0.006210000000     0.506200000000     0.947330000000     0.405536   
C692     C      0.506220000000     0.506210000000     0.570320000000     0.40615    
C693     C      0.944920000000     0.757300000000     0.008870000000     0.402161   
C694     C      0.567510000000     0.755110000000     0.008860000000     0.402666   
C695     C      0.006210000000     0.756210000000     0.947390000000     0.404606   
C696     C      0.006210000000     0.756210000000     0.570280000000     0.404721   
C697     C      0.694900000000     0.508500000000     0.008820000000     0.403057   
C698     C      0.817530000000     0.503910000000     0.008830000000     0.403225   
C699     C      0.756220000000     0.506200000000     0.947330000000     0.405815   
C700     C      0.756210000000     0.506210000000     0.570320000000     0.406575   
C701     C      0.694870000000     0.755010000000     0.008860000000     0.403181   
C702     C      0.817560000000     0.757400000000     0.008870000000     0.402937   
C703     C      0.756220000000     0.756210000000     0.947340000000     0.406098   
C704     C      0.756210000000     0.756210000000     0.570330000000     0.406257   
C705     C      0.897360000000     0.784750000000     0.007490000000     0.0299841  
C706     C      0.897250000000     0.730590000000     0.510360000000     0.0300321  
C707     C      0.865200000000     0.730650000000     0.510270000000     0.029953   
C708     C      0.865160000000     0.784820000000     0.007610000000     0.0299979  
C709     C      0.615070000000     0.727660000000     0.007480000000     0.0297017  
C710     C      0.615180000000     0.781820000000     0.010360000000     0.0294534  
C711     C      0.647220000000     0.781760000000     0.010260000000     0.0294112  
C712     C      0.647270000000     0.727590000000     0.007600000000     0.0297426  
C713     C      0.897350000000     0.976090000000     0.008840000000     0.0333193  
C714     C      0.897200000000     0.530320000000     0.508830000000     0.0299541  
C715     C      0.865240000000     0.530320000000     0.508830000000     0.0298907  
C716     C      0.865080000000     0.976090000000     0.008840000000     0.0332587  
C717     C      0.615080000000     0.536320000000     0.008820000000     0.0298376  
C718     C      0.615240000000     0.982090000000     0.508810000000     0.0329182  
C719     C      0.647200000000     0.982090000000     0.508810000000     0.0329654  
C720     C      0.647350000000     0.536320000000     0.008820000000     0.0298345  
C721     C      0.736600000000     0.775020000000     0.649960000000     0.0324519  
C722     C      0.775830000000     0.737390000000     0.649950000000     0.0324095  
C723     C      0.774640000000     0.736220000000     0.617710000000     0.0323615  
C724     C      0.737780000000     0.776190000000     0.617710000000     0.0322976  
C725     C      0.774790000000     0.736360000000     0.899960000000     0.0327567  
C726     C      0.737650000000     0.776070000000     0.899960000000     0.0327239  
C727     C      0.736480000000     0.774900000000     0.867710000000     0.0327446  
C728     C      0.775960000000     0.737530000000     0.867710000000     0.0327905  
C729     C      0.736420000000     0.987580000000     0.649950000000     0.0360839  
C730     C      0.776010000000     0.524840000000     0.649950000000     0.0323517  
C731     C      0.774840000000     0.526010000000     0.617700000000     0.0323578  
C732     C      0.737580000000     0.986420000000     0.617700000000     0.0355322  
C733     C      0.736430000000     0.487570000000     0.867700000000     0.0326934  
C734     C      0.776020000000     0.024830000000     0.867700000000     0.0322523  
C735     C      0.774860000000     0.026000000000     0.899950000000     0.0318932  
C736     C      0.737600000000     0.486400000000     0.899950000000     0.0327522  
C737     C      0.732100000000     0.865230000000     0.758820000000     0.0298902  
C738     C      0.786340000000     0.865070000000     0.758810000000     0.030531   
C739     C      0.786340000000     0.897350000000     0.758810000000     0.0306013  
C740     C      0.732100000000     0.897190000000     0.758820000000     0.0299937  
C741     C      0.726100000000     0.615070000000     0.758830000000     0.0303407  
C742     C      0.780340000000     0.615230000000     0.758840000000     0.029791   
C743     C      0.780340000000     0.647190000000     0.758840000000     0.0297781  
C744     C      0.726100000000     0.647350000000     0.758830000000     0.0303386  
C745     C      0.525990000000     0.737560000000     0.649950000000     0.0320392  
C746     C      0.986430000000     0.774840000000     0.649950000000     0.0352046  
C747     C      0.987570000000     0.775980000000     0.617700000000     0.0357308  
C748     C      0.524850000000     0.736420000000     0.617700000000     0.031993   
C749     C      0.525970000000     0.774860000000     0.867700000000     0.0324438  
C750     C      0.986440000000     0.737560000000     0.867700000000     0.0355465  
C751     C      0.987560000000     0.736440000000     0.899950000000     0.0362079  
C752     C      0.524860000000     0.775970000000     0.899950000000     0.032543   
C753     C      0.526200000000     0.987780000000     0.649940000000     0.0361173  
C754     C      0.986240000000     0.524640000000     0.649940000000     0.0354719  
C755     C      0.987400000000     0.525820000000     0.617690000000     0.0360991  
C756     C      0.525040000000     0.986590000000     0.617690000000     0.0354467  
C757     C      0.526060000000     0.987630000000     0.867690000000     0.0363273  
C758     C      0.986350000000     0.524760000000     0.867690000000     0.0358628  
C759     C      0.987520000000     0.525940000000     0.899940000000     0.0364262  
C760     C      0.524900000000     0.986460000000     0.899940000000     0.0359131  
C761     C      0.977590000000     0.897260000000     0.760030000000     0.0337442  
C762     C      0.531770000000     0.897210000000     0.757380000000     0.0300449  
C763     C      0.531830000000     0.865170000000     0.757280000000     0.0300143  
C764     C      0.977660000000     0.865060000000     0.760160000000     0.0336066  
C765     C      0.534820000000     0.615150000000     0.760050000000     0.0303084  
C766     C      0.980650000000     0.615190000000     0.757390000000     0.0330466  
C767     C      0.980590000000     0.647230000000     0.757290000000     0.0330941  
C768     C      0.534750000000     0.647340000000     0.760170000000     0.0302573  
Cu1      Cu     0.477810000000     0.507220000000     0.258810000000     0.84922    
Cu2      Cu     0.034610000000     0.005180000000     0.258820000000     0.840207   
Cu3      Cu     0.477880000000     0.255840000000     0.258810000000     0.847011   
Cu4      Cu     0.034540000000     0.256570000000     0.258810000000     0.841996   
Cu5      Cu     0.227840000000     0.504820000000     0.258820000000     0.849304   
Cu6      Cu     0.284600000000     0.007600000000     0.258820000000     0.845556   
Cu7      Cu     0.227830000000     0.257600000000     0.258830000000     0.849255   
Cu8      Cu     0.284600000000     0.254820000000     0.258820000000     0.849242   
Cu9      Cu     0.004830000000     0.034590000000     0.508820000000     0.840483   
Cu10     Cu     0.507610000000     0.477820000000     0.008820000000     0.844862   
Cu11     Cu     0.006580000000     0.284540000000     0.508840000000     0.843075   
Cu12     Cu     0.505850000000     0.227880000000     0.008840000000     0.842569   
Cu13     Cu     0.257600000000     0.034590000000     0.508820000000     0.844455   
Cu14     Cu     0.254830000000     0.477820000000     0.008830000000     0.845153   
Cu15     Cu     0.255200000000     0.284610000000     0.508830000000     0.849051   
Cu16     Cu     0.257230000000     0.227810000000     0.008830000000     0.844892   
Cu17     Cu     0.477810000000     0.507220000000     0.758810000000     0.849253   
Cu18     Cu     0.034610000000     0.005180000000     0.758820000000     0.840414   
Cu19     Cu     0.477880000000     0.255840000000     0.758810000000     0.847044   
Cu20     Cu     0.034540000000     0.256570000000     0.758810000000     0.842057   
Cu21     Cu     0.227840000000     0.504820000000     0.758830000000     0.849391   
Cu22     Cu     0.284600000000     0.007600000000     0.758820000000     0.845627   
Cu23     Cu     0.227830000000     0.257600000000     0.758830000000     0.849346   
Cu24     Cu     0.284600000000     0.254820000000     0.758820000000     0.849326   
Cu25     Cu     0.004830000000     0.034590000000     0.008820000000     0.836172   
Cu26     Cu     0.507610000000     0.477820000000     0.508820000000     0.849128   
Cu27     Cu     0.006580000000     0.284540000000     0.008840000000     0.838746   
Cu28     Cu     0.505850000000     0.227880000000     0.508840000000     0.846896   
Cu29     Cu     0.257600000000     0.034590000000     0.008820000000     0.840164   
Cu30     Cu     0.254830000000     0.477820000000     0.508830000000     0.849254   
Cu31     Cu     0.255200000000     0.284610000000     0.008830000000     0.844724   
Cu32     Cu     0.257230000000     0.227810000000     0.508830000000     0.849255   
Cu33     Cu     0.477810000000     0.007220000000     0.258810000000     0.845557   
Cu34     Cu     0.034610000000     0.505180000000     0.258820000000     0.844235   
Cu35     Cu     0.477880000000     0.755840000000     0.258810000000     0.847023   
Cu36     Cu     0.034540000000     0.756570000000     0.258810000000     0.841988   
Cu37     Cu     0.227840000000     0.004820000000     0.258830000000     0.845249   
Cu38     Cu     0.284600000000     0.507600000000     0.258820000000     0.849193   
Cu39     Cu     0.227830000000     0.757600000000     0.258830000000     0.84925    
Cu40     Cu     0.284600000000     0.754820000000     0.258820000000     0.849243   
Cu41     Cu     0.004830000000     0.534590000000     0.508820000000     0.845202   
Cu42     Cu     0.507610000000     0.977820000000     0.008820000000     0.847561   
Cu43     Cu     0.006580000000     0.784540000000     0.508840000000     0.843192   
Cu44     Cu     0.505850000000     0.727880000000     0.008840000000     0.842571   
Cu45     Cu     0.257600000000     0.534590000000     0.508820000000     0.849244   
Cu46     Cu     0.254830000000     0.977820000000     0.008830000000     0.847872   
Cu47     Cu     0.255200000000     0.784610000000     0.508830000000     0.849082   
Cu48     Cu     0.257230000000     0.727810000000     0.008830000000     0.844886   
Cu49     Cu     0.477810000000     0.007220000000     0.758810000000     0.845602   
Cu50     Cu     0.034610000000     0.505180000000     0.758820000000     0.844431   
Cu51     Cu     0.477880000000     0.755840000000     0.758810000000     0.846938   
Cu52     Cu     0.034540000000     0.756560000000     0.758810000000     0.842099   
Cu53     Cu     0.227840000000     0.004820000000     0.758830000000     0.845329   
Cu54     Cu     0.284600000000     0.507600000000     0.758820000000     0.84928    
Cu55     Cu     0.227830000000     0.757600000000     0.758830000000     0.849345   
Cu56     Cu     0.284600000000     0.754820000000     0.758830000000     0.849331   
Cu57     Cu     0.004830000000     0.534590000000     0.008820000000     0.84088    
Cu58     Cu     0.507610000000     0.977820000000     0.508820000000     0.851882   
Cu59     Cu     0.006580000000     0.784540000000     0.008840000000     0.838761   
Cu60     Cu     0.505850000000     0.727880000000     0.508840000000     0.846871   
Cu61     Cu     0.257600000000     0.534590000000     0.008820000000     0.844927   
Cu62     Cu     0.254830000000     0.977820000000     0.508830000000     0.852196   
Cu63     Cu     0.255200000000     0.784610000000     0.008830000000     0.844798   
Cu64     Cu     0.257230000000     0.727810000000     0.508830000000     0.849128   
Cu65     Cu     0.977810000000     0.507220000000     0.258810000000     0.851942   
Cu66     Cu     0.534610000000     0.005180000000     0.258820000000     0.844915   
Cu67     Cu     0.977880000000     0.255840000000     0.258810000000     0.849797   
Cu68     Cu     0.534540000000     0.256560000000     0.258810000000     0.846825   
Cu69     Cu     0.727840000000     0.504820000000     0.258820000000     0.849278   
Cu70     Cu     0.784600000000     0.007600000000     0.258820000000     0.845593   
Cu71     Cu     0.727840000000     0.257600000000     0.258830000000     0.849182   
Cu72     Cu     0.784600000000     0.254820000000     0.258820000000     0.84921    
Cu73     Cu     0.504820000000     0.034590000000     0.508820000000     0.844433   
Cu74     Cu     0.007610000000     0.477820000000     0.008820000000     0.841146   
Cu75     Cu     0.506580000000     0.284540000000     0.508840000000     0.846732   
Cu76     Cu     0.005850000000     0.227880000000     0.008840000000     0.838705   
Cu77     Cu     0.757610000000     0.034590000000     0.508820000000     0.844635   
Cu78     Cu     0.754830000000     0.477820000000     0.008830000000     0.845164   
Cu79     Cu     0.755200000000     0.284610000000     0.508830000000     0.848931   
Cu80     Cu     0.757230000000     0.227810000000     0.008830000000     0.8449     
Cu81     Cu     0.977810000000     0.507220000000     0.758810000000     0.851953   
Cu82     Cu     0.534610000000     0.005180000000     0.758820000000     0.845108   
Cu83     Cu     0.977880000000     0.255840000000     0.758810000000     0.849848   
Cu84     Cu     0.534540000000     0.256570000000     0.758810000000     0.846853   
Cu85     Cu     0.727840000000     0.504820000000     0.758830000000     0.849447   
Cu86     Cu     0.784610000000     0.007600000000     0.758820000000     0.845756   
Cu87     Cu     0.727840000000     0.257600000000     0.758830000000     0.84921    
Cu88     Cu     0.784600000000     0.254820000000     0.758820000000     0.849246   
Cu89     Cu     0.504820000000     0.034590000000     0.008820000000     0.840135   
Cu90     Cu     0.007610000000     0.477820000000     0.508820000000     0.845302   
Cu91     Cu     0.506580000000     0.284540000000     0.008840000000     0.842605   
Cu92     Cu     0.005850000000     0.227880000000     0.508840000000     0.842983   
Cu93     Cu     0.757600000000     0.034590000000     0.008820000000     0.840174   
Cu94     Cu     0.754830000000     0.477820000000     0.508830000000     0.849256   
Cu95     Cu     0.755200000000     0.284610000000     0.008830000000     0.844737   
Cu96     Cu     0.757230000000     0.227810000000     0.508830000000     0.849271   
Cu97     Cu     0.977810000000     0.007220000000     0.258810000000     0.848279   
Cu98     Cu     0.534610000000     0.505180000000     0.258820000000     0.848967   
Cu99     Cu     0.977880000000     0.755840000000     0.258810000000     0.849805   
Cu100    Cu     0.534540000000     0.756570000000     0.258810000000     0.846817   
Cu101    Cu     0.727840000000     0.004820000000     0.258820000000     0.84522    
Cu102    Cu     0.784600000000     0.507600000000     0.258820000000     0.849229   
Cu103    Cu     0.727840000000     0.757600000000     0.258830000000     0.849176   
Cu104    Cu     0.784600000000     0.754820000000     0.258820000000     0.84921    
Cu105    Cu     0.504820000000     0.534590000000     0.508820000000     0.84921    
Cu106    Cu     0.007610000000     0.977820000000     0.008820000000     0.8439     
Cu107    Cu     0.506580000000     0.784540000000     0.508840000000     0.84682    
Cu108    Cu     0.005850000000     0.727880000000     0.008840000000     0.838702   
Cu109    Cu     0.757610000000     0.534590000000     0.508820000000     0.849423   
Cu110    Cu     0.754830000000     0.977820000000     0.008830000000     0.84788    
Cu111    Cu     0.755200000000     0.784610000000     0.508830000000     0.848962   
Cu112    Cu     0.757230000000     0.727810000000     0.008830000000     0.844915   
Cu113    Cu     0.977810000000     0.007220000000     0.758810000000     0.848309   
Cu114    Cu     0.534610000000     0.505180000000     0.758820000000     0.849153   
Cu115    Cu     0.977880000000     0.755840000000     0.758810000000     0.849711   
Cu116    Cu     0.534540000000     0.756560000000     0.758810000000     0.846861   
Cu117    Cu     0.727840000000     0.004820000000     0.758830000000     0.845387   
Cu118    Cu     0.784610000000     0.507600000000     0.758820000000     0.849403   
Cu119    Cu     0.727830000000     0.757600000000     0.758830000000     0.849259   
Cu120    Cu     0.784600000000     0.754820000000     0.758830000000     0.849372   
Cu121    Cu     0.504820000000     0.534590000000     0.008820000000     0.844922   
Cu122    Cu     0.007610000000     0.977820000000     0.508820000000     0.848079   
Cu123    Cu     0.506580000000     0.784540000000     0.008840000000     0.842669   
Cu124    Cu     0.005850000000     0.727880000000     0.508840000000     0.842928   
Cu125    Cu     0.757600000000     0.534590000000     0.008820000000     0.844935   
Cu126    Cu     0.754830000000     0.977820000000     0.508830000000     0.852196   
Cu127    Cu     0.755200000000     0.784610000000     0.008830000000     0.844839   
Cu128    Cu     0.757230000000     0.727810000000     0.508830000000     0.849144   
H1       H      0.409090000000     0.306720000000     0.506350000000     0.0390679  
H2       H      0.408790000000     0.208510000000     0.011490000000     0.0379049  
H3       H      0.353640000000     0.208580000000     0.011400000000     0.0380918  
H4       H      0.353450000000     0.306810000000     0.506500000000     0.0388803  
H5       H      0.103330000000     0.205690000000     0.506340000000     0.0389037  
H6       H      0.103630000000     0.303900000000     0.511490000000     0.038287   
H7       H      0.158780000000     0.303830000000     0.511390000000     0.0385394  
H8       H      0.158980000000     0.205610000000     0.506490000000     0.0388075  
H9       H      0.409150000000     0.454120000000     0.508840000000     0.0388064  
H10      H      0.408650000000     0.052480000000     0.008820000000     0.0381549  
H11      H      0.353780000000     0.052480000000     0.008830000000     0.0381447  
H12      H      0.353280000000     0.454130000000     0.508840000000     0.0388627  
H13      H      0.103280000000     0.058290000000     0.508820000000     0.0386204  
H14      H      0.103780000000     0.459930000000     0.008810000000     0.0380401  
H15      H      0.158650000000     0.459930000000     0.008810000000     0.038054   
H16      H      0.159150000000     0.058290000000     0.508820000000     0.0387891  
H17      H      0.221010000000     0.290380000000     0.162000000000     0.0356373  
H18      H      0.291420000000     0.222030000000     0.162000000000     0.0356814  
H19      H      0.289700000000     0.220340000000     0.105660000000     0.0356102  
H20      H      0.222720000000     0.292070000000     0.105660000000     0.0356415  
H21      H      0.289950000000     0.220570000000     0.412000000000     0.0356604  
H22      H      0.222490000000     0.291850000000     0.412000000000     0.0356983  
H23      H      0.220800000000     0.290170000000     0.355660000000     0.0355967  
H24      H      0.291650000000     0.222260000000     0.355660000000     0.0355986  
H25      H      0.220680000000     0.472370000000     0.161990000000     0.0356217  
H26      H      0.291740000000     0.040060000000     0.161990000000     0.0355286  
H27      H      0.290060000000     0.041740000000     0.105650000000     0.0355879  
H28      H      0.222370000000     0.470680000000     0.105660000000     0.0356341  
H29      H      0.220700000000     0.972360000000     0.355660000000     0.0359682  
H30      H      0.291760000000     0.540050000000     0.355660000000     0.0356351  
H31      H      0.290070000000     0.541730000000     0.411990000000     0.0356328  
H32      H      0.222380000000     0.970670000000     0.411990000000     0.0357223  
H33      H      0.209950000000     0.353780000000     0.258830000000     0.038659   
H34      H      0.308300000000     0.353270000000     0.258810000000     0.038839   
H35      H      0.308300000000     0.409150000000     0.258810000000     0.0388752  
H36      H      0.209950000000     0.408640000000     0.258820000000     0.0386188  
H37      H      0.204140000000     0.103270000000     0.258820000000     0.0386766  
H38      H      0.302490000000     0.103780000000     0.258840000000     0.0385656  
H39      H      0.302490000000     0.158640000000     0.258840000000     0.0386586  
H40      H      0.204140000000     0.159150000000     0.258820000000     0.0387384  
H41      H      0.041720000000     0.222320000000     0.161980000000     0.0363772  
H42      H      0.470700000000     0.290080000000     0.161980000000     0.0365085  
H43      H      0.472330000000     0.291710000000     0.105670000000     0.0365009  
H44      H      0.040090000000     0.220700000000     0.105670000000     0.0363021  
H45      H      0.041690000000     0.290110000000     0.355690000000     0.0361653  
H46      H      0.470720000000     0.222300000000     0.355690000000     0.0362245  
H47      H      0.472300000000     0.220720000000     0.411960000000     0.036218   
H48      H      0.040110000000     0.291690000000     0.411960000000     0.0360704  
H49      H      0.042080000000     0.472720000000     0.161990000000     0.0355636  
H50      H      0.470350000000     0.039690000000     0.161990000000     0.0354996  
H51      H      0.472040000000     0.041410000000     0.105640000000     0.0356103  
H52      H      0.040400000000     0.471000000000     0.105650000000     0.0354999  
H53      H      0.041840000000     0.472470000000     0.355650000000     0.0356387  
H54      H      0.470570000000     0.039930000000     0.355650000000     0.0355101  
H55      H      0.472250000000     0.041620000000     0.411990000000     0.0355616  
H56      H      0.040160000000     0.470770000000     0.411990000000     0.0354482  
H57      H      0.455600000000     0.408970000000     0.261150000000     0.0389101  
H58      H      0.053840000000     0.408770000000     0.256250000000     0.038638   
H59      H      0.053900000000     0.353620000000     0.256150000000     0.0384579  
H60      H      0.455690000000     0.353320000000     0.261300000000     0.0391071  
H61      H      0.056810000000     0.103440000000     0.261160000000     0.0387235  
H62      H      0.458580000000     0.103630000000     0.256260000000     0.0385159  
H63      H      0.458510000000     0.158780000000     0.256160000000     0.0383974  
H64      H      0.056720000000     0.159080000000     0.261310000000     0.0390356  
H65      H      0.409090000000     0.306720000000     0.006350000000     0.0385667  
H66      H      0.408790000000     0.208510000000     0.511490000000     0.0383821  
H67      H      0.353640000000     0.208580000000     0.511400000000     0.0385638  
H68      H      0.353450000000     0.306810000000     0.006500000000     0.0383658  
H69      H      0.103330000000     0.205690000000     0.006340000000     0.0383925  
H70      H      0.103630000000     0.303900000000     0.011490000000     0.0378098  
H71      H      0.158780000000     0.303840000000     0.011390000000     0.0380664  
H72      H      0.158980000000     0.205610000000     0.006490000000     0.0382951  
H73      H      0.409150000000     0.454120000000     0.008840000000     0.0383195  
H74      H      0.408650000000     0.052480000000     0.508820000000     0.0386722  
H75      H      0.353780000000     0.052480000000     0.508830000000     0.0386373  
H76      H      0.353280000000     0.454120000000     0.008840000000     0.038359   
H77      H      0.103280000000     0.058290000000     0.008820000000     0.0381431  
H78      H      0.103780000000     0.459930000000     0.508810000000     0.0385546  
H79      H      0.158650000000     0.459930000000     0.508810000000     0.0385606  
H80      H      0.159150000000     0.058290000000     0.008820000000     0.0383053  
H81      H      0.221010000000     0.290380000000     0.662000000000     0.0356292  
H82      H      0.291420000000     0.222030000000     0.662000000000     0.0356621  
H83      H      0.289700000000     0.220340000000     0.605660000000     0.0356089  
H84      H      0.222720000000     0.292070000000     0.605660000000     0.0356145  
H85      H      0.289950000000     0.220570000000     0.912000000000     0.0365513  
H86      H      0.222490000000     0.291850000000     0.912000000000     0.0365621  
H87      H      0.220800000000     0.290170000000     0.855660000000     0.0359018  
H88      H      0.291650000000     0.222260000000     0.855660000000     0.0359002  
H89      H      0.220680000000     0.472370000000     0.662000000000     0.0356087  
H90      H      0.291740000000     0.040060000000     0.661990000000     0.0355087  
H91      H      0.290060000000     0.041740000000     0.605650000000     0.0355901  
H92      H      0.222370000000     0.470680000000     0.605660000000     0.0356411  
H93      H      0.220700000000     0.972360000000     0.855660000000     0.0362382  
H94      H      0.291760000000     0.540050000000     0.855660000000     0.0359314  
H95      H      0.290070000000     0.541730000000     0.911990000000     0.0365119  
H96      H      0.222380000000     0.970670000000     0.911990000000     0.0365941  
H97      H      0.209950000000     0.353780000000     0.758830000000     0.0387165  
H98      H      0.308300000000     0.353270000000     0.758810000000     0.0389112  
H99      H      0.308300000000     0.409150000000     0.758810000000     0.0389563  
H100     H      0.209950000000     0.408640000000     0.758830000000     0.0386848  
H101     H      0.204140000000     0.103270000000     0.758830000000     0.0387483  
H102     H      0.302490000000     0.103780000000     0.758840000000     0.0386245  
H103     H      0.302490000000     0.158640000000     0.758840000000     0.0387181  
H104     H      0.204140000000     0.159150000000     0.758830000000     0.0388108  
H105     H      0.041720000000     0.222320000000     0.661980000000     0.0363615  
H106     H      0.470700000000     0.290080000000     0.661980000000     0.0364934  
H107     H      0.472340000000     0.291710000000     0.605670000000     0.0365073  
H108     H      0.040090000000     0.220700000000     0.605670000000     0.0363017  
H109     H      0.041690000000     0.290110000000     0.855680000000     0.0364617  
H110     H      0.470720000000     0.222300000000     0.855690000000     0.0365161  
H111     H      0.472300000000     0.220720000000     0.911960000000     0.0370873  
H112     H      0.040110000000     0.291690000000     0.911960000000     0.0369388  
H113     H      0.042080000000     0.472720000000     0.661990000000     0.0355495  
H114     H      0.470350000000     0.039690000000     0.661990000000     0.0354878  
H115     H      0.472040000000     0.041410000000     0.605640000000     0.0356038  
H116     H      0.040400000000     0.471000000000     0.605650000000     0.0354979  
H117     H      0.041840000000     0.472460000000     0.855650000000     0.0359181  
H118     H      0.470570000000     0.039930000000     0.855650000000     0.0358005  
H119     H      0.472250000000     0.041620000000     0.911990000000     0.0364442  
H120     H      0.040160000000     0.470770000000     0.911990000000     0.0363317  
H121     H      0.455610000000     0.408970000000     0.761150000000     0.0390051  
H122     H      0.053840000000     0.408770000000     0.756250000000     0.0386832  
H123     H      0.053900000000     0.353620000000     0.756150000000     0.0385117  
H124     H      0.455690000000     0.353320000000     0.761300000000     0.0391869  
H125     H      0.056810000000     0.103440000000     0.761160000000     0.0388016  
H126     H      0.458580000000     0.103630000000     0.756260000000     0.0385691  
H127     H      0.458510000000     0.158780000000     0.756160000000     0.0384522  
H128     H      0.056720000000     0.159080000000     0.761310000000     0.0391142  
H129     H      0.409090000000     0.806720000000     0.506350000000     0.0391513  
H130     H      0.408790000000     0.708510000000     0.011490000000     0.037899   
H131     H      0.353640000000     0.708580000000     0.011400000000     0.0380867  
H132     H      0.353450000000     0.806810000000     0.506500000000     0.0389656  
H133     H      0.103330000000     0.705690000000     0.506340000000     0.0389195  
H134     H      0.103630000000     0.803900000000     0.511490000000     0.0383508  
H135     H      0.158780000000     0.803840000000     0.511390000000     0.0385988  
H136     H      0.158980000000     0.705610000000     0.506490000000     0.03883    
H137     H      0.409150000000     0.954120000000     0.508840000000     0.0386784  
H138     H      0.408650000000     0.552480000000     0.008820000000     0.0380966  
H139     H      0.353780000000     0.552480000000     0.008820000000     0.0380802  
H140     H      0.353280000000     0.954120000000     0.508840000000     0.0387097  
H141     H      0.103280000000     0.558290000000     0.508820000000     0.0386244  
H142     H      0.103780000000     0.959930000000     0.008810000000     0.037795   
H143     H      0.158650000000     0.959930000000     0.008810000000     0.0378035  
H144     H      0.159150000000     0.558290000000     0.508820000000     0.0387896  
H145     H      0.221010000000     0.790380000000     0.162000000000     0.0357066  
H146     H      0.291420000000     0.722030000000     0.162000000000     0.0356709  
H147     H      0.289700000000     0.720340000000     0.105660000000     0.0356128  
H148     H      0.222720000000     0.792070000000     0.105660000000     0.0356743  
H149     H      0.289950000000     0.720570000000     0.412000000000     0.0356545  
H150     H      0.222490000000     0.791850000000     0.412000000000     0.0357519  
H151     H      0.220790000000     0.790170000000     0.355660000000     0.0356322  
H152     H      0.291650000000     0.722260000000     0.355660000000     0.0356139  
H153     H      0.220680000000     0.972370000000     0.161990000000     0.0359728  
H154     H      0.291740000000     0.540060000000     0.161990000000     0.0356621  
H155     H      0.290060000000     0.541740000000     0.105650000000     0.0356431  
H156     H      0.222370000000     0.970680000000     0.105660000000     0.0357257  
H157     H      0.220690000000     0.472360000000     0.355660000000     0.0356427  
H158     H      0.291760000000     0.040050000000     0.355660000000     0.0354938  
H159     H      0.290070000000     0.041730000000     0.411990000000     0.0355881  
H160     H      0.222380000000     0.470670000000     0.411990000000     0.0356084  
H161     H      0.209950000000     0.853780000000     0.258830000000     0.0387683  
H162     H      0.308300000000     0.853270000000     0.258810000000     0.0389884  
H163     H      0.308300000000     0.909150000000     0.258810000000     0.0393974  
H164     H      0.209950000000     0.908640000000     0.258820000000     0.0390352  
H165     H      0.204140000000     0.603270000000     0.258830000000     0.0388291  
H166     H      0.302490000000     0.603780000000     0.258840000000     0.0386368  
H167     H      0.302490000000     0.658640000000     0.258840000000     0.038662   
H168     H      0.204140000000     0.659150000000     0.258830000000     0.0387694  
H169     H      0.041720000000     0.722320000000     0.161980000000     0.0363883  
H170     H      0.470700000000     0.790080000000     0.161980000000     0.03658    
H171     H      0.472330000000     0.791710000000     0.105670000000     0.0365636  
H172     H      0.040090000000     0.720700000000     0.105670000000     0.0363148  
H173     H      0.041690000000     0.790110000000     0.355690000000     0.0362225  
H174     H      0.470720000000     0.722300000000     0.355690000000     0.0362259  
H175     H      0.472300000000     0.720720000000     0.411960000000     0.0362117  
H176     H      0.040110000000     0.791690000000     0.411960000000     0.0361114  
H177     H      0.042080000000     0.972720000000     0.161990000000     0.0358922  
H178     H      0.470350000000     0.539690000000     0.161990000000     0.035641   
H179     H      0.472040000000     0.541410000000     0.105640000000     0.0356393  
H180     H      0.040400000000     0.971000000000     0.105650000000     0.0356082  
H181     H      0.041840000000     0.972460000000     0.355650000000     0.0359579  
H182     H      0.470570000000     0.539930000000     0.355650000000     0.0356469  
H183     H      0.472250000000     0.541620000000     0.411990000000     0.0356157  
H184     H      0.040160000000     0.970770000000     0.411990000000     0.0355542  
H185     H      0.455600000000     0.908970000000     0.261150000000     0.0394281  
H186     H      0.053840000000     0.908770000000     0.256250000000     0.0390407  
H187     H      0.053900000000     0.853620000000     0.256150000000     0.0385691  
H188     H      0.455690000000     0.853320000000     0.261300000000     0.0392562  
H189     H      0.056810000000     0.603440000000     0.261160000000     0.0388722  
H190     H      0.458580000000     0.603630000000     0.256260000000     0.0385885  
H191     H      0.458510000000     0.658780000000     0.256160000000     0.0383932  
H192     H      0.056720000000     0.659080000000     0.261310000000     0.0390727  
H193     H      0.409090000000     0.806720000000     0.006350000000     0.0386507  
H194     H      0.408790000000     0.708510000000     0.511490000000     0.0383769  
H195     H      0.353640000000     0.708580000000     0.511400000000     0.0385602  
H196     H      0.353450000000     0.806810000000     0.006500000000     0.0384503  
H197     H      0.103330000000     0.705690000000     0.006340000000     0.0384099  
H198     H      0.103630000000     0.803900000000     0.011490000000     0.0378526  
H199     H      0.158780000000     0.803830000000     0.011390000000     0.0381229  
H200     H      0.158980000000     0.705610000000     0.006490000000     0.0383128  
H201     H      0.409150000000     0.954120000000     0.008840000000     0.0381861  
H202     H      0.408650000000     0.552480000000     0.508820000000     0.0386118  
H203     H      0.353780000000     0.552480000000     0.508830000000     0.0385844  
H204     H      0.353280000000     0.954130000000     0.008840000000     0.0382483  
H205     H      0.103280000000     0.558290000000     0.008820000000     0.0381468  
H206     H      0.103780000000     0.959930000000     0.508810000000     0.0382924  
H207     H      0.158650000000     0.959930000000     0.508810000000     0.0383111  
H208     H      0.159150000000     0.558290000000     0.008820000000     0.0383042  
H209     H      0.221010000000     0.790390000000     0.662000000000     0.0356487  
H210     H      0.291420000000     0.722020000000     0.662000000000     0.0356682  
H211     H      0.289700000000     0.720340000000     0.605660000000     0.0356313  
H212     H      0.222720000000     0.792070000000     0.605660000000     0.0356999  
H213     H      0.289950000000     0.720570000000     0.912000000000     0.0365532  
H214     H      0.222490000000     0.791850000000     0.912000000000     0.0366067  
H215     H      0.220800000000     0.790170000000     0.855660000000     0.035955   
H216     H      0.291650000000     0.722260000000     0.855660000000     0.0359029  
H217     H      0.220680000000     0.972370000000     0.662000000000     0.0359584  
H218     H      0.291740000000     0.540060000000     0.661990000000     0.035644   
H219     H      0.290060000000     0.541740000000     0.605650000000     0.035645   
H220     H      0.222370000000     0.970680000000     0.605660000000     0.0357288  
H221     H      0.220700000000     0.472360000000     0.855650000000     0.035926   
H222     H      0.291760000000     0.040050000000     0.855660000000     0.0357934  
H223     H      0.290070000000     0.041730000000     0.911990000000     0.0364581  
H224     H      0.222380000000     0.470670000000     0.911990000000     0.036496   
H225     H      0.209950000000     0.853780000000     0.758830000000     0.0388276  
H226     H      0.308300000000     0.853270000000     0.758810000000     0.0390627  
H227     H      0.308300000000     0.909150000000     0.758810000000     0.0394614  
H228     H      0.209950000000     0.908640000000     0.758830000000     0.0390846  
H229     H      0.204140000000     0.603270000000     0.758830000000     0.0388996  
H230     H      0.302490000000     0.603780000000     0.758840000000     0.0386952  
H231     H      0.302490000000     0.658640000000     0.758840000000     0.03873    
H232     H      0.204140000000     0.659150000000     0.758830000000     0.0388499  
H233     H      0.041720000000     0.722320000000     0.661980000000     0.0363734  
H234     H      0.470700000000     0.790080000000     0.661980000000     0.0365654  
H235     H      0.472340000000     0.791710000000     0.605670000000     0.0365715  
H236     H      0.040090000000     0.720700000000     0.605670000000     0.0363114  
H237     H      0.041690000000     0.790110000000     0.855680000000     0.0365058  
H238     H      0.470720000000     0.722300000000     0.855690000000     0.0365234  
H239     H      0.472300000000     0.720720000000     0.911960000000     0.0370842  
H240     H      0.040110000000     0.791690000000     0.911960000000     0.0369821  
H241     H      0.042080000000     0.972720000000     0.661990000000     0.0358791  
H242     H      0.470350000000     0.539690000000     0.661990000000     0.0356259  
H243     H      0.472040000000     0.541410000000     0.605640000000     0.0356606  
H244     H      0.040400000000     0.971000000000     0.605650000000     0.035605   
H245     H      0.041840000000     0.972470000000     0.855650000000     0.0362537  
H246     H      0.470570000000     0.539930000000     0.855650000000     0.0359374  
H247     H      0.472250000000     0.541620000000     0.911990000000     0.0365001  
H248     H      0.040160000000     0.970770000000     0.911990000000     0.0364331  
H249     H      0.455610000000     0.908970000000     0.761150000000     0.0395076  
H250     H      0.053840000000     0.908770000000     0.756250000000     0.039099   
H251     H      0.053900000000     0.853620000000     0.756150000000     0.0386209  
H252     H      0.455690000000     0.853320000000     0.761300000000     0.0393369  
H253     H      0.056810000000     0.603430000000     0.761160000000     0.0389536  
H254     H      0.458580000000     0.603630000000     0.756260000000     0.0386414  
H255     H      0.458510000000     0.658780000000     0.756160000000     0.0384721  
H256     H      0.056720000000     0.659080000000     0.761310000000     0.039139   
H257     H      0.909090000000     0.306720000000     0.506350000000     0.0395315  
H258     H      0.908790000000     0.208510000000     0.011490000000     0.0383491  
H259     H      0.853640000000     0.208580000000     0.011400000000     0.0382178  
H260     H      0.853450000000     0.306810000000     0.506500000000     0.0390239  
H261     H      0.603330000000     0.205690000000     0.506340000000     0.03903    
H262     H      0.603640000000     0.303900000000     0.511490000000     0.0383776  
H263     H      0.658780000000     0.303830000000     0.511390000000     0.0385604  
H264     H      0.658980000000     0.205610000000     0.506490000000     0.038838   
H265     H      0.909150000000     0.454120000000     0.508840000000     0.0393051  
H266     H      0.908650000000     0.052480000000     0.008820000000     0.0385849  
H267     H      0.853780000000     0.052480000000     0.008830000000     0.038263   
H268     H      0.853280000000     0.454120000000     0.508840000000     0.0389934  
H269     H      0.603280000000     0.058290000000     0.508820000000     0.038768   
H270     H      0.603780000000     0.459930000000     0.008810000000     0.0381223  
H271     H      0.658650000000     0.459930000000     0.008810000000     0.0380714  
H272     H      0.659150000000     0.058290000000     0.508820000000     0.0388134  
H273     H      0.721010000000     0.290380000000     0.162000000000     0.0356265  
H274     H      0.791420000000     0.222030000000     0.162000000000     0.0357449  
H275     H      0.789700000000     0.220340000000     0.105660000000     0.0356666  
H276     H      0.722720000000     0.292070000000     0.105660000000     0.0356568  
H277     H      0.789950000000     0.220570000000     0.412000000000     0.035736   
H278     H      0.722490000000     0.291850000000     0.412000000000     0.035684   
H279     H      0.720790000000     0.290170000000     0.355660000000     0.0356064  
H280     H      0.791650000000     0.222260000000     0.355660000000     0.0356372  
H281     H      0.720680000000     0.472370000000     0.161990000000     0.0356277  
H282     H      0.791740000000     0.040060000000     0.161990000000     0.0355762  
H283     H      0.790060000000     0.041740000000     0.105650000000     0.035647   
H284     H      0.722370000000     0.470680000000     0.105660000000     0.0356391  
H285     H      0.720700000000     0.972360000000     0.355660000000     0.0359746  
H286     H      0.791760000000     0.540050000000     0.355660000000     0.0356882  
H287     H      0.790070000000     0.541730000000     0.411990000000     0.035666   
H288     H      0.722380000000     0.970670000000     0.411990000000     0.0357197  
H289     H      0.709950000000     0.353780000000     0.258830000000     0.0386643  
H290     H      0.808300000000     0.353270000000     0.258810000000     0.0389158  
H291     H      0.808300000000     0.409150000000     0.258810000000     0.0389538  
H292     H      0.709950000000     0.408640000000     0.258820000000     0.0386194  
H293     H      0.704140000000     0.103270000000     0.258820000000     0.03869    
H294     H      0.802490000000     0.103780000000     0.258840000000     0.0386151  
H295     H      0.802490000000     0.158640000000     0.258840000000     0.0387116  
H296     H      0.704140000000     0.159150000000     0.258820000000     0.038754   
H297     H      0.541720000000     0.222320000000     0.161980000000     0.0364693  
H298     H      0.970700000000     0.290080000000     0.161980000000     0.0366588  
H299     H      0.972340000000     0.291710000000     0.105670000000     0.036876   
H300     H      0.540090000000     0.220700000000     0.105670000000     0.0364727  
H301     H      0.541690000000     0.290110000000     0.355680000000     0.03623    
H302     H      0.970720000000     0.222300000000     0.355690000000     0.0363418  
H303     H      0.972300000000     0.220720000000     0.411960000000     0.0365553  
H304     H      0.540110000000     0.291690000000     0.411960000000     0.0362166  
H305     H      0.542080000000     0.472720000000     0.161990000000     0.0356393  
H306     H      0.970350000000     0.039690000000     0.161990000000     0.0356376  
H307     H      0.972040000000     0.041410000000     0.105640000000     0.0359416  
H308     H      0.540400000000     0.471000000000     0.105650000000     0.0356524  
H309     H      0.541840000000     0.472470000000     0.355650000000     0.0356988  
H310     H      0.970560000000     0.039930000000     0.355650000000     0.0356167  
H311     H      0.972250000000     0.041630000000     0.411990000000     0.0358914  
H312     H      0.540160000000     0.470770000000     0.411990000000     0.0355884  
H313     H      0.955610000000     0.408970000000     0.261150000000     0.0387687  
H314     H      0.553840000000     0.408770000000     0.256250000000     0.0386047  
H315     H      0.553900000000     0.353620000000     0.256150000000     0.0383922  
H316     H      0.955690000000     0.353320000000     0.261300000000     0.0389385  
H317     H      0.556810000000     0.103440000000     0.261160000000     0.038714   
H318     H      0.958580000000     0.103630000000     0.256260000000     0.0382845  
H319     H      0.958510000000     0.158780000000     0.256160000000     0.0381949  
H320     H      0.556720000000     0.159080000000     0.261310000000     0.0390205  
H321     H      0.909100000000     0.306720000000     0.006350000000     0.0390449  
H322     H      0.908790000000     0.208510000000     0.511490000000     0.0388213  
H323     H      0.853640000000     0.208580000000     0.511400000000     0.0386858  
H324     H      0.853450000000     0.306810000000     0.006500000000     0.0385059  
H325     H      0.603330000000     0.205690000000     0.006340000000     0.0385191  
H326     H      0.603630000000     0.303900000000     0.011490000000     0.0379069  
H327     H      0.658780000000     0.303840000000     0.011390000000     0.0380871  
H328     H      0.658980000000     0.205610000000     0.006490000000     0.0383263  
H329     H      0.909150000000     0.454120000000     0.008840000000     0.0388236  
H330     H      0.908650000000     0.052480000000     0.508820000000     0.0390917  
H331     H      0.853780000000     0.052480000000     0.508830000000     0.0387623  
H332     H      0.853280000000     0.454120000000     0.008840000000     0.0385015  
H333     H      0.603280000000     0.058290000000     0.008820000000     0.03829    
H334     H      0.603780000000     0.459930000000     0.508810000000     0.0386318  
H335     H      0.658650000000     0.459930000000     0.508810000000     0.038572   
H336     H      0.659150000000     0.058290000000     0.008820000000     0.0383372  
H337     H      0.721010000000     0.290380000000     0.662000000000     0.0356604  
H338     H      0.791420000000     0.222030000000     0.662000000000     0.0357083  
H339     H      0.789700000000     0.220340000000     0.605660000000     0.0356745  
H340     H      0.722720000000     0.292070000000     0.605660000000     0.0356168  
H341     H      0.789950000000     0.220570000000     0.912000000000     0.0366027  
H342     H      0.722490000000     0.291850000000     0.912000000000     0.0365652  
H343     H      0.720800000000     0.290170000000     0.855660000000     0.0359079  
H344     H      0.791650000000     0.222260000000     0.855660000000     0.0359467  
H345     H      0.720680000000     0.472370000000     0.662000000000     0.035621   
H346     H      0.791740000000     0.040060000000     0.661990000000     0.0355605  
H347     H      0.790060000000     0.041740000000     0.605650000000     0.0356445  
H348     H      0.722360000000     0.470680000000     0.605660000000     0.0356373  
H349     H      0.720690000000     0.972360000000     0.855660000000     0.0362419  
H350     H      0.791760000000     0.540050000000     0.855660000000     0.0359573  
H351     H      0.790070000000     0.541730000000     0.911990000000     0.0365571  
H352     H      0.722380000000     0.970670000000     0.911990000000     0.0366072  
H353     H      0.709950000000     0.353780000000     0.758830000000     0.0387261  
H354     H      0.808300000000     0.353270000000     0.758810000000     0.0389874  
H355     H      0.808300000000     0.409150000000     0.758810000000     0.0390286  
H356     H      0.709940000000     0.408640000000     0.758830000000     0.0386724  
H357     H      0.704140000000     0.103270000000     0.758830000000     0.0387614  
H358     H      0.802490000000     0.103780000000     0.758840000000     0.0386683  
H359     H      0.802490000000     0.158640000000     0.758840000000     0.0387702  
H360     H      0.704140000000     0.159150000000     0.758830000000     0.0388279  
H361     H      0.541720000000     0.222320000000     0.661980000000     0.0364552  
H362     H      0.970700000000     0.290080000000     0.661980000000     0.0366447  
H363     H      0.972340000000     0.291710000000     0.605670000000     0.0368727  
H364     H      0.540090000000     0.220700000000     0.605670000000     0.0364731  
H365     H      0.541690000000     0.290110000000     0.855680000000     0.036525   
H366     H      0.970720000000     0.222300000000     0.855690000000     0.0366251  
H367     H      0.972300000000     0.220720000000     0.911960000000     0.0374142  
H368     H      0.540110000000     0.291690000000     0.911960000000     0.0370867  
H369     H      0.542080000000     0.472720000000     0.661990000000     0.0356232  
H370     H      0.970350000000     0.039690000000     0.661990000000     0.0356243  
H371     H      0.972040000000     0.041410000000     0.605640000000     0.0359339  
H372     H      0.540400000000     0.471000000000     0.605650000000     0.0356588  
H373     H      0.541840000000     0.472460000000     0.855650000000     0.0359677  
H374     H      0.970570000000     0.039930000000     0.855650000000     0.0359077  
H375     H      0.972260000000     0.041620000000     0.911990000000     0.0367789  
H376     H      0.540160000000     0.470770000000     0.911990000000     0.036493   
H377     H      0.955610000000     0.408970000000     0.761150000000     0.0388536  
H378     H      0.553840000000     0.408770000000     0.756250000000     0.038636   
H379     H      0.553900000000     0.353620000000     0.756150000000     0.038478   
H380     H      0.955690000000     0.353320000000     0.761300000000     0.0390186  
H381     H      0.556810000000     0.103440000000     0.761160000000     0.038792   
H382     H      0.958580000000     0.103630000000     0.756260000000     0.038337   
H383     H      0.958510000000     0.158780000000     0.756160000000     0.0382485  
H384     H      0.556720000000     0.159080000000     0.761310000000     0.0391     
H385     H      0.909090000000     0.806720000000     0.506350000000     0.0396143  
H386     H      0.908790000000     0.708510000000     0.011490000000     0.0383461  
H387     H      0.853640000000     0.708580000000     0.011400000000     0.0382113  
H388     H      0.853450000000     0.806810000000     0.506500000000     0.039109   
H389     H      0.603330000000     0.705690000000     0.506340000000     0.0390453  
H390     H      0.603640000000     0.803900000000     0.511490000000     0.0384386  
H391     H      0.658780000000     0.803830000000     0.511390000000     0.038632   
H392     H      0.658980000000     0.705610000000     0.506490000000     0.0388606  
H393     H      0.909150000000     0.954120000000     0.508840000000     0.0391733  
H394     H      0.908650000000     0.552480000000     0.008820000000     0.0385278  
H395     H      0.853780000000     0.552480000000     0.008820000000     0.0381989  
H396     H      0.853280000000     0.954120000000     0.508840000000     0.0388515  
H397     H      0.603280000000     0.558290000000     0.508820000000     0.0387625  
H398     H      0.603780000000     0.959930000000     0.008810000000     0.037882   
H399     H      0.658650000000     0.959930000000     0.008810000000     0.0378195  
H400     H      0.659150000000     0.558290000000     0.508820000000     0.0388151  
H401     H      0.721010000000     0.790380000000     0.162000000000     0.0357059  
H402     H      0.791420000000     0.722030000000     0.162000000000     0.035736   
H403     H      0.789700000000     0.720340000000     0.105660000000     0.0356677  
H404     H      0.722720000000     0.792070000000     0.105660000000     0.0356667  
H405     H      0.789950000000     0.720570000000     0.412000000000     0.0357299  
H406     H      0.722490000000     0.791850000000     0.412000000000     0.0357362  
H407     H      0.720790000000     0.790170000000     0.355660000000     0.035647   
H408     H      0.791650000000     0.722260000000     0.355660000000     0.0356528  
H409     H      0.720680000000     0.972370000000     0.161990000000     0.0359781  
H410     H      0.791740000000     0.540060000000     0.161990000000     0.0357108  
H411     H      0.790060000000     0.541740000000     0.105650000000     0.0357023  
H412     H      0.722370000000     0.970680000000     0.105660000000     0.035731   
H413     H      0.720700000000     0.472360000000     0.355660000000     0.0356464  
H414     H      0.791760000000     0.040050000000     0.355660000000     0.0355525  
H415     H      0.790070000000     0.041730000000     0.411990000000     0.0356115  
H416     H      0.722380000000     0.470670000000     0.411990000000     0.0356182  
H417     H      0.709950000000     0.853780000000     0.258830000000     0.0387736  
H418     H      0.808300000000     0.853270000000     0.258810000000     0.0390648  
H419     H      0.808300000000     0.909150000000     0.258810000000     0.0394749  
H420     H      0.709950000000     0.908640000000     0.258820000000     0.0390358  
H421     H      0.704140000000     0.603270000000     0.258830000000     0.0388427  
H422     H      0.802490000000     0.603780000000     0.258840000000     0.0386864  
H423     H      0.802490000000     0.658640000000     0.258840000000     0.0387151  
H424     H      0.704140000000     0.659150000000     0.258830000000     0.0387851  
H425     H      0.541720000000     0.722320000000     0.161980000000     0.0364816  
H426     H      0.970700000000     0.790080000000     0.161980000000     0.0367297  
H427     H      0.972340000000     0.791710000000     0.105670000000     0.0369377  
H428     H      0.540090000000     0.720700000000     0.105670000000     0.036485   
H429     H      0.541690000000     0.790110000000     0.355680000000     0.0362862  
H430     H      0.970720000000     0.722300000000     0.355690000000     0.0363433  
H431     H      0.972300000000     0.720720000000     0.411960000000     0.0365495  
H432     H      0.540110000000     0.791690000000     0.411960000000     0.0362577  
H433     H      0.542080000000     0.972720000000     0.161990000000     0.0359657  
H434     H      0.970350000000     0.539690000000     0.161990000000     0.0357677  
H435     H      0.972040000000     0.541410000000     0.105640000000     0.0359989  
H436     H      0.540400000000     0.971000000000     0.105650000000     0.0357686  
H437     H      0.541840000000     0.972460000000     0.355650000000     0.0360184  
H438     H      0.970560000000     0.539930000000     0.355650000000     0.035752   
H439     H      0.972250000000     0.541620000000     0.411990000000     0.0359509  
H440     H      0.540160000000     0.970770000000     0.411990000000     0.0356946  
H441     H      0.955610000000     0.908970000000     0.261150000000     0.0392869  
H442     H      0.553840000000     0.908770000000     0.256250000000     0.0390081  
H443     H      0.553900000000     0.853620000000     0.256150000000     0.0385032  
H444     H      0.955690000000     0.853320000000     0.261300000000     0.0390879  
H445     H      0.556810000000     0.603440000000     0.261160000000     0.0388625  
H446     H      0.958580000000     0.603630000000     0.256260000000     0.038357   
H447     H      0.958510000000     0.658780000000     0.256160000000     0.0381891  
H448     H      0.556720000000     0.659080000000     0.261310000000     0.0390578  
H449     H      0.909100000000     0.806720000000     0.006350000000     0.0391262  
H450     H      0.908790000000     0.708510000000     0.511490000000     0.0388165  
H451     H      0.853640000000     0.708580000000     0.511400000000     0.0386825  
H452     H      0.853450000000     0.806810000000     0.006500000000     0.0385906  
H453     H      0.603330000000     0.705690000000     0.006340000000     0.0385361  
H454     H      0.603630000000     0.803900000000     0.011490000000     0.0379506  
H455     H      0.658780000000     0.803830000000     0.011390000000     0.0381337  
H456     H      0.658980000000     0.705610000000     0.006490000000     0.0383382  
H457     H      0.909150000000     0.954120000000     0.008840000000     0.0386884  
H458     H      0.908650000000     0.552480000000     0.508820000000     0.0390332  
H459     H      0.853780000000     0.552480000000     0.508830000000     0.0387092  
H460     H      0.853280000000     0.954130000000     0.008840000000     0.0383899  
H461     H      0.603280000000     0.558290000000     0.008820000000     0.0382838  
H462     H      0.603780000000     0.959930000000     0.508810000000     0.0383741  
H463     H      0.658650000000     0.959930000000     0.508810000000     0.0383215  
H464     H      0.659150000000     0.558290000000     0.008820000000     0.0383367  
H465     H      0.721010000000     0.790390000000     0.662000000000     0.0356775  
H466     H      0.791420000000     0.722020000000     0.662000000000     0.0357134  
H467     H      0.789700000000     0.720340000000     0.605660000000     0.0356969  
H468     H      0.722720000000     0.792070000000     0.605660000000     0.0357021  
H469     H      0.789950000000     0.720570000000     0.912000000000     0.036604   
H470     H      0.722490000000     0.791850000000     0.912000000000     0.0366079  
H471     H      0.720800000000     0.790170000000     0.855660000000     0.0359563  
H472     H      0.791650000000     0.722260000000     0.855660000000     0.035948   
H473     H      0.720680000000     0.972370000000     0.662000000000     0.0359709  
H474     H      0.791740000000     0.540060000000     0.661990000000     0.0356956  
H475     H      0.790060000000     0.541740000000     0.605650000000     0.0356993  
H476     H      0.722360000000     0.970680000000     0.605660000000     0.035726   
H477     H      0.720690000000     0.472360000000     0.855650000000     0.0359254  
H478     H      0.791760000000     0.040050000000     0.855660000000     0.0358142  
H479     H      0.790070000000     0.041730000000     0.911990000000     0.0365261  
H480     H      0.722380000000     0.470670000000     0.911990000000     0.0365079  
H481     H      0.709950000000     0.853780000000     0.758830000000     0.0388322  
H482     H      0.808300000000     0.853270000000     0.758810000000     0.0391374  
H483     H      0.808300000000     0.909150000000     0.758810000000     0.0395328  
H484     H      0.709940000000     0.908640000000     0.758830000000     0.0390719  
H485     H      0.704140000000     0.603270000000     0.758830000000     0.038912   
H486     H      0.802490000000     0.603780000000     0.758840000000     0.0387386  
H487     H      0.802490000000     0.658640000000     0.758840000000     0.0387807  
H488     H      0.704140000000     0.659150000000     0.758830000000     0.0388622  
H489     H      0.541720000000     0.722320000000     0.661980000000     0.0364658  
H490     H      0.970700000000     0.790080000000     0.661980000000     0.036715   
H491     H      0.972340000000     0.791710000000     0.605670000000     0.0369375  
H492     H      0.540090000000     0.720700000000     0.605670000000     0.0364841  
H493     H      0.541690000000     0.790110000000     0.855680000000     0.036569   
H494     H      0.970720000000     0.722300000000     0.855690000000     0.0366315  
H495     H      0.972300000000     0.720720000000     0.911960000000     0.0374177  
H496     H      0.540110000000     0.791690000000     0.911960000000     0.0371238  
H497     H      0.542080000000     0.972720000000     0.661990000000     0.035953   
H498     H      0.970350000000     0.539690000000     0.661990000000     0.0357618  
H499     H      0.972040000000     0.541410000000     0.605640000000     0.0359914  
H500     H      0.540400000000     0.971000000000     0.605650000000     0.0357657  
H501     H      0.541840000000     0.972470000000     0.855650000000     0.0363033  
H502     H      0.970570000000     0.539930000000     0.855650000000     0.0360456  
H503     H      0.972260000000     0.541630000000     0.911990000000     0.0368311  
H504     H      0.540160000000     0.970770000000     0.911990000000     0.0365942  
H505     H      0.955610000000     0.908970000000     0.761150000000     0.039354   
H506     H      0.553840000000     0.908770000000     0.756250000000     0.0390522  
H507     H      0.553900000000     0.853620000000     0.756150000000     0.0385861  
H508     H      0.955690000000     0.853320000000     0.761300000000     0.0391681  
H509     H      0.556810000000     0.603430000000     0.761160000000     0.0389495  
H510     H      0.958580000000     0.603630000000     0.756260000000     0.0384046  
H511     H      0.958510000000     0.658780000000     0.756160000000     0.0382656  
H512     H      0.556720000000     0.659080000000     0.761310000000     0.039137   
N1       N      0.413350000000     0.257610000000     0.508900000000    -0.175315   
N2       N      0.349130000000     0.257740000000     0.508920000000    -0.175375   
N3       N      0.099070000000     0.254810000000     0.508900000000    -0.175362   
N4       N      0.163300000000     0.254680000000     0.508910000000    -0.175431   
N5       N      0.413340000000     0.003270000000     0.508830000000    -0.176932   
N6       N      0.349100000000     0.003270000000     0.508830000000    -0.176919   
N7       N      0.099100000000     0.009140000000     0.508820000000    -0.176918   
N8       N      0.163340000000     0.009140000000     0.508820000000    -0.176963   
N9       N      0.256220000000     0.256210000000     0.165850000000    -0.17667    
N10      N      0.256210000000     0.256200000000     0.101810000000    -0.176589   
N11      N      0.256220000000     0.256210000000     0.415850000000    -0.176629   
N12      N      0.256220000000     0.256210000000     0.351810000000    -0.17666    
N13      N      0.256210000000     0.506210000000     0.165840000000    -0.176618   
N14      N      0.256210000000     0.506210000000     0.101800000000    -0.176645   
N15      N      0.256230000000     0.006200000000     0.351800000000    -0.178803   
N16      N      0.256230000000     0.006200000000     0.415840000000    -0.178019   
N17      N      0.259160000000     0.349090000000     0.258820000000    -0.175328   
N18      N      0.259160000000     0.413330000000     0.258820000000    -0.175392   
N19      N      0.253280000000     0.099090000000     0.258830000000    -0.175306   
N20      N      0.253280000000     0.163330000000     0.258830000000    -0.175337   
N21      N      0.506210000000     0.256200000000     0.165860000000    -0.176459   
N22      N      0.506210000000     0.256200000000     0.101790000000    -0.176341   
N23      N      0.506210000000     0.256210000000     0.351770000000    -0.176431   
N24      N      0.506210000000     0.256210000000     0.415870000000    -0.176315   
N25      N      0.006220000000     0.506210000000     0.165840000000    -0.178135   
N26      N      0.006220000000     0.506210000000     0.101800000000    -0.178736   
N27      N      0.506200000000     0.006200000000     0.351800000000    -0.178811   
N28      N      0.506210000000     0.006200000000     0.415840000000    -0.178106   
N29      N      0.504680000000     0.413290000000     0.258730000000    -0.175354   
N30      N      0.504810000000     0.349060000000     0.258740000000    -0.175379   
N31      N      0.507740000000     0.099110000000     0.258740000000    -0.175417   
N32      N      0.507610000000     0.163340000000     0.258750000000    -0.175367   
N33      N      0.413350000000     0.257610000000     0.008900000000    -0.175404   
N34      N      0.349130000000     0.257740000000     0.008920000000    -0.175495   
N35      N      0.099070000000     0.254810000000     0.008900000000    -0.175471   
N36      N      0.163300000000     0.254680000000     0.008910000000    -0.175496   
N37      N      0.413330000000     0.003270000000     0.008830000000    -0.176974   
N38      N      0.349100000000     0.003270000000     0.008830000000    -0.176952   
N39      N      0.099100000000     0.009140000000     0.008820000000    -0.176976   
N40      N      0.163340000000     0.009140000000     0.008820000000    -0.177069   
N41      N      0.256210000000     0.256200000000     0.665850000000    -0.176716   
N42      N      0.256210000000     0.256200000000     0.601810000000    -0.176724   
N43      N      0.256220000000     0.256210000000     0.915850000000    -0.176178   
N44      N      0.256220000000     0.256210000000     0.851810000000    -0.176596   
N45      N      0.256210000000     0.506210000000     0.665840000000    -0.176669   
N46      N      0.256210000000     0.506210000000     0.601800000000    -0.176713   
N47      N      0.256220000000     0.006200000000     0.851810000000    -0.178742   
N48      N      0.256220000000     0.006200000000     0.915840000000    -0.177606   
N49      N      0.259160000000     0.349090000000     0.758820000000    -0.175314   
N50      N      0.259160000000     0.413330000000     0.758820000000    -0.175309   
N51      N      0.253280000000     0.099090000000     0.758830000000    -0.17529    
N52      N      0.253280000000     0.163330000000     0.758830000000    -0.17532    
N53      N      0.506210000000     0.256200000000     0.665860000000    -0.176465   
N54      N      0.506210000000     0.256200000000     0.601790000000    -0.176398   
N55      N      0.506210000000     0.256210000000     0.851780000000    -0.17626    
N56      N      0.506210000000     0.256210000000     0.915870000000    -0.175877   
N57      N      0.006220000000     0.506210000000     0.665840000000    -0.178134   
N58      N      0.006220000000     0.506210000000     0.601800000000    -0.178873   
N59      N      0.506200000000     0.006200000000     0.851800000000    -0.178755   
N60      N      0.506210000000     0.006200000000     0.915840000000    -0.17764    
N61      N      0.504680000000     0.413290000000     0.758730000000    -0.175399   
N62      N      0.504810000000     0.349060000000     0.758740000000    -0.175333   
N63      N      0.507740000000     0.099110000000     0.758740000000    -0.175402   
N64      N      0.507610000000     0.163340000000     0.758750000000    -0.175345   
N65      N      0.413350000000     0.757610000000     0.508900000000    -0.175313   
N66      N      0.349130000000     0.757740000000     0.508920000000    -0.175371   
N67      N      0.099070000000     0.754810000000     0.508900000000    -0.175338   
N68      N      0.163300000000     0.754680000000     0.508910000000    -0.175363   
N69      N      0.413340000000     0.503270000000     0.508830000000    -0.175438   
N70      N      0.349100000000     0.503270000000     0.508830000000    -0.175366   
N71      N      0.099100000000     0.509140000000     0.508820000000    -0.175345   
N72      N      0.163340000000     0.509140000000     0.508820000000    -0.175439   
N73      N      0.256220000000     0.756200000000     0.165850000000    -0.176663   
N74      N      0.256210000000     0.756200000000     0.101810000000    -0.176635   
N75      N      0.256220000000     0.756210000000     0.415850000000    -0.176623   
N76      N      0.256220000000     0.756220000000     0.351810000000    -0.176659   
N77      N      0.256210000000     0.006210000000     0.165840000000    -0.178806   
N78      N      0.256210000000     0.006210000000     0.101800000000    -0.178108   
N79      N      0.256230000000     0.506200000000     0.351800000000    -0.176577   
N80      N      0.256220000000     0.506200000000     0.415840000000    -0.176582   
N81      N      0.259160000000     0.849090000000     0.258820000000    -0.175316   
N82      N      0.259160000000     0.913330000000     0.258820000000    -0.175028   
N83      N      0.253280000000     0.599090000000     0.258830000000    -0.175329   
N84      N      0.253280000000     0.663330000000     0.258830000000    -0.175404   
N85      N      0.506210000000     0.756200000000     0.165860000000    -0.176455   
N86      N      0.506210000000     0.756200000000     0.101790000000    -0.176339   
N87      N      0.506210000000     0.756210000000     0.351770000000    -0.176425   
N88      N      0.506210000000     0.756210000000     0.415870000000    -0.17636    
N89      N      0.006220000000     0.006210000000     0.165840000000    -0.180342   
N90      N      0.006220000000     0.006210000000     0.101800000000    -0.180186   
N91      N      0.506200000000     0.506200000000     0.351800000000    -0.176587   
N92      N      0.506210000000     0.506200000000     0.415840000000    -0.176649   
N93      N      0.504680000000     0.913290000000     0.258730000000    -0.175113   
N94      N      0.504810000000     0.849060000000     0.258740000000    -0.175368   
N95      N      0.507740000000     0.599110000000     0.258740000000    -0.175442   
N96      N      0.507610000000     0.663340000000     0.258750000000    -0.175375   
N97      N      0.413350000000     0.757610000000     0.008900000000    -0.175402   
N98      N      0.349130000000     0.757740000000     0.008920000000    -0.175493   
N99      N      0.099070000000     0.754810000000     0.008900000000    -0.175472   
N100     N      0.163300000000     0.754680000000     0.008910000000    -0.17549    
N101     N      0.413330000000     0.503270000000     0.008830000000    -0.175475   
N102     N      0.349100000000     0.503270000000     0.008830000000    -0.175508   
N103     N      0.099100000000     0.509140000000     0.008820000000    -0.175456   
N104     N      0.163340000000     0.509140000000     0.008820000000    -0.17555    
N105     N      0.256210000000     0.756210000000     0.665850000000    -0.176724   
N106     N      0.256210000000     0.756200000000     0.601810000000    -0.17663    
N107     N      0.256220000000     0.756210000000     0.915850000000    -0.176174   
N108     N      0.256220000000     0.756210000000     0.851810000000    -0.176595   
N109     N      0.256210000000     0.006210000000     0.665840000000    -0.178864   
N110     N      0.256210000000     0.006210000000     0.601800000000    -0.178171   
N111     N      0.256220000000     0.506200000000     0.851800000000    -0.176601   
N112     N      0.256220000000     0.506200000000     0.915840000000    -0.176151   
N113     N      0.259160000000     0.849090000000     0.758820000000    -0.175298   
N114     N      0.259160000000     0.913330000000     0.758820000000    -0.175079   
N115     N      0.253280000000     0.599090000000     0.758830000000    -0.175315   
N116     N      0.253280000000     0.663330000000     0.758830000000    -0.175321   
N117     N      0.506210000000     0.756200000000     0.665860000000    -0.176461   
N118     N      0.506210000000     0.756200000000     0.601790000000    -0.176396   
N119     N      0.506210000000     0.756210000000     0.851780000000    -0.176259   
N120     N      0.506210000000     0.756210000000     0.915870000000    -0.175921   
N121     N      0.006220000000     0.006210000000     0.665840000000    -0.180344   
N122     N      0.006220000000     0.006210000000     0.601800000000    -0.180323   
N123     N      0.506200000000     0.506200000000     0.851800000000    -0.176543   
N124     N      0.506210000000     0.506200000000     0.915840000000    -0.176184   
N125     N      0.504680000000     0.913290000000     0.758730000000    -0.175049   
N126     N      0.504810000000     0.849060000000     0.758740000000    -0.175315   
N127     N      0.507740000000     0.599110000000     0.758740000000    -0.175428   
N128     N      0.507610000000     0.663340000000     0.758750000000    -0.175357   
N129     N      0.913350000000     0.257610000000     0.508900000000    -0.175078   
N130     N      0.849130000000     0.257740000000     0.508920000000    -0.17537    
N131     N      0.599070000000     0.254810000000     0.508900000000    -0.175384   
N132     N      0.663300000000     0.254680000000     0.508910000000    -0.175431   
N133     N      0.913340000000     0.003270000000     0.508830000000    -0.17663    
N134     N      0.849100000000     0.003270000000     0.508830000000    -0.176891   
N135     N      0.599100000000     0.009140000000     0.508820000000    -0.176886   
N136     N      0.663330000000     0.009140000000     0.508820000000    -0.176897   
N137     N      0.756210000000     0.256210000000     0.165850000000    -0.176711   
N138     N      0.756210000000     0.256200000000     0.101810000000    -0.176584   
N139     N      0.756220000000     0.256210000000     0.415850000000    -0.176622   
N140     N      0.756220000000     0.256210000000     0.351810000000    -0.176655   
N141     N      0.756210000000     0.506210000000     0.165840000000    -0.176614   
N142     N      0.756210000000     0.506210000000     0.101800000000    -0.176641   
N143     N      0.756230000000     0.006200000000     0.351800000000    -0.178785   
N144     N      0.756230000000     0.006200000000     0.415840000000    -0.17809    
N145     N      0.759160000000     0.349090000000     0.258820000000    -0.175322   
N146     N      0.759160000000     0.413330000000     0.258820000000    -0.175389   
N147     N      0.753280000000     0.099090000000     0.258830000000    -0.175306   
N148     N      0.753280000000     0.163330000000     0.258830000000    -0.175332   
N149     N      0.006210000000     0.256200000000     0.165860000000    -0.177918   
N150     N      0.006210000000     0.256200000000     0.101790000000    -0.178556   
N151     N      0.006210000000     0.256210000000     0.351770000000    -0.177837   
N152     N      0.006210000000     0.256210000000     0.415870000000    -0.178535   
N153     N      0.506220000000     0.506210000000     0.165840000000    -0.176677   
N154     N      0.506220000000     0.506210000000     0.101800000000    -0.176567   
N155     N      0.006200000000     0.006200000000     0.351800000000    -0.180263   
N156     N      0.006210000000     0.006200000000     0.415840000000    -0.180315   
N157     N      0.004680000000     0.413290000000     0.258730000000    -0.176864   
N158     N      0.004810000000     0.349060000000     0.258740000000    -0.176856   
N159     N      0.007740000000     0.099110000000     0.258740000000    -0.176934   
N160     N      0.007610000000     0.163340000000     0.258750000000    -0.176875   
N161     N      0.913350000000     0.257610000000     0.008900000000    -0.175132   
N162     N      0.849130000000     0.257740000000     0.008920000000    -0.175479   
N163     N      0.599070000000     0.254810000000     0.008900000000    -0.175496   
N164     N      0.663300000000     0.254680000000     0.008910000000    -0.175497   
N165     N      0.913340000000     0.003270000000     0.008830000000    -0.17674    
N166     N      0.849100000000     0.003270000000     0.008830000000    -0.176937   
N167     N      0.599100000000     0.009140000000     0.008820000000    -0.176952   
N168     N      0.663340000000     0.009140000000     0.008820000000    -0.177074   
N169     N      0.756220000000     0.256200000000     0.665850000000    -0.176658   
N170     N      0.756210000000     0.256200000000     0.601810000000    -0.176721   
N171     N      0.756220000000     0.256210000000     0.915850000000    -0.176174   
N172     N      0.756220000000     0.256210000000     0.851810000000    -0.176587   
N173     N      0.756210000000     0.506210000000     0.665840000000    -0.17662    
N174     N      0.756210000000     0.506210000000     0.601800000000    -0.176716   
N175     N      0.756230000000     0.006200000000     0.851800000000    -0.178873   
N176     N      0.756230000000     0.006200000000     0.915840000000    -0.177575   
N177     N      0.759160000000     0.349090000000     0.758820000000    -0.175303   
N178     N      0.759160000000     0.413330000000     0.758820000000    -0.175317   
N179     N      0.753280000000     0.099090000000     0.758830000000    -0.175294   
N180     N      0.753280000000     0.163330000000     0.758830000000    -0.175314   
N181     N      0.006210000000     0.256200000000     0.665860000000    -0.177921   
N182     N      0.006210000000     0.256200000000     0.601790000000    -0.178615   
N183     N      0.006210000000     0.256210000000     0.851780000000    -0.17771    
N184     N      0.006210000000     0.256210000000     0.915870000000    -0.17813    
N185     N      0.506220000000     0.506210000000     0.665840000000    -0.176687   
N186     N      0.506220000000     0.506210000000     0.601800000000    -0.176634   
N187     N      0.006200000000     0.006200000000     0.851800000000    -0.180193   
N188     N      0.006210000000     0.006200000000     0.915840000000    -0.179858   
N189     N      0.004680000000     0.413290000000     0.758730000000    -0.176899   
N190     N      0.004810000000     0.349060000000     0.758740000000    -0.176833   
N191     N      0.007740000000     0.099110000000     0.758740000000    -0.176915   
N192     N      0.007610000000     0.163340000000     0.758750000000    -0.176854   
N193     N      0.913350000000     0.757610000000     0.508900000000    -0.175076   
N194     N      0.849130000000     0.757740000000     0.508920000000    -0.175365   
N195     N      0.599070000000     0.754810000000     0.508900000000    -0.175362   
N196     N      0.663300000000     0.754680000000     0.508910000000    -0.175357   
N197     N      0.913340000000     0.503270000000     0.508830000000    -0.175135   
N198     N      0.849100000000     0.503270000000     0.508830000000    -0.175345   
N199     N      0.599100000000     0.509140000000     0.508820000000    -0.175358   
N200     N      0.663330000000     0.509140000000     0.508820000000    -0.175368   
N201     N      0.756210000000     0.756200000000     0.165850000000    -0.176697   
N202     N      0.756210000000     0.756200000000     0.101810000000    -0.176654   
N203     N      0.756220000000     0.756210000000     0.415850000000    -0.176617   
N204     N      0.756220000000     0.756220000000     0.351810000000    -0.17665    
N205     N      0.756210000000     0.006210000000     0.165840000000    -0.178807   
N206     N      0.756210000000     0.006210000000     0.101800000000    -0.178104   
N207     N      0.756230000000     0.506200000000     0.351800000000    -0.176567   
N208     N      0.756230000000     0.506200000000     0.415840000000    -0.17663    
N209     N      0.759160000000     0.849090000000     0.258820000000    -0.17531    
N210     N      0.759160000000     0.913330000000     0.258820000000    -0.175025   
N211     N      0.753280000000     0.599090000000     0.258830000000    -0.175329   
N212     N      0.753280000000     0.663330000000     0.258830000000    -0.175399   
N213     N      0.006210000000     0.756200000000     0.165860000000    -0.177914   
N214     N      0.006210000000     0.756200000000     0.101790000000    -0.178552   
N215     N      0.006210000000     0.756210000000     0.351770000000    -0.17783    
N216     N      0.006210000000     0.756210000000     0.415870000000    -0.17858    
N217     N      0.506220000000     0.006210000000     0.165840000000    -0.178901   
N218     N      0.506220000000     0.006210000000     0.101800000000    -0.177951   
N219     N      0.006200000000     0.506200000000     0.351800000000    -0.178051   
N220     N      0.006210000000     0.506200000000     0.415840000000    -0.178863   
N221     N      0.004680000000     0.913290000000     0.258730000000    -0.17662    
N222     N      0.004810000000     0.849060000000     0.258740000000    -0.176839   
N223     N      0.007740000000     0.599110000000     0.258740000000    -0.176961   
N224     N      0.007610000000     0.663340000000     0.258750000000    -0.176891   
N225     N      0.913350000000     0.757610000000     0.008900000000    -0.175129   
N226     N      0.849130000000     0.757740000000     0.008920000000    -0.175478   
N227     N      0.599070000000     0.754810000000     0.008900000000    -0.175496   
N228     N      0.663300000000     0.754680000000     0.008910000000    -0.17554    
N229     N      0.913340000000     0.503270000000     0.008830000000    -0.175243   
N230     N      0.849100000000     0.503270000000     0.008830000000    -0.175496   
N231     N      0.599100000000     0.509140000000     0.008820000000    -0.175478   
N232     N      0.663340000000     0.509140000000     0.008820000000    -0.175551   
N233     N      0.756220000000     0.756210000000     0.665850000000    -0.176671   
N234     N      0.756210000000     0.756200000000     0.601810000000    -0.176627   
N235     N      0.756220000000     0.756210000000     0.915850000000    -0.176171   
N236     N      0.756220000000     0.756210000000     0.851810000000    -0.176591   
N237     N      0.756210000000     0.006210000000     0.665840000000    -0.178815   
N238     N      0.756210000000     0.006210000000     0.601800000000    -0.178174   
N239     N      0.756230000000     0.506200000000     0.851800000000    -0.176654   
N240     N      0.756230000000     0.506200000000     0.915840000000    -0.176144   
N241     N      0.759160000000     0.849090000000     0.758820000000    -0.175291   
N242     N      0.759160000000     0.913330000000     0.758820000000    -0.175087   
N243     N      0.753280000000     0.599090000000     0.758830000000    -0.175319   
N244     N      0.753280000000     0.663330000000     0.758830000000    -0.175319   
N245     N      0.006210000000     0.756200000000     0.665860000000    -0.177916   
N246     N      0.006210000000     0.756200000000     0.601790000000    -0.178612   
N247     N      0.006210000000     0.756210000000     0.851780000000    -0.177711   
N248     N      0.006210000000     0.756210000000     0.915870000000    -0.178125   
N249     N      0.506220000000     0.006210000000     0.665840000000    -0.178906   
N250     N      0.506220000000     0.006210000000     0.601800000000    -0.178093   
N251     N      0.006200000000     0.506200000000     0.851800000000    -0.177989   
N252     N      0.006210000000     0.506200000000     0.915840000000    -0.178412   
N253     N      0.004680000000     0.913290000000     0.758730000000    -0.176549   
N254     N      0.004810000000     0.849060000000     0.758740000000    -0.176813   
N255     N      0.007740000000     0.599120000000     0.758740000000    -0.176873   
N256     N      0.007610000000     0.663340000000     0.758750000000    -0.176878   
O1       O      0.481520000000     0.053400000000     0.258590000000    -0.3978     
O2       O      0.479660000000     0.460160000000     0.259030000000    -0.392748   
O3       O      0.480590000000     0.508130000000     0.305680000000    -0.394652   
O4       O      0.480570000000     0.007810000000     0.211940000000    -0.395263   
O5       O      0.031850000000     0.004600000000     0.211940000000    -0.39453    
O6       O      0.031820000000     0.504260000000     0.305690000000    -0.393633   
O7       O      0.030900000000     0.459000000000     0.258580000000    -0.397175   
O8       O      0.032760000000     0.052240000000     0.259040000000    -0.391081   
O9       O      0.481600000000     0.209350000000     0.256440000000    -0.395391   
O10      O      0.479780000000     0.302470000000     0.261160000000    -0.394104   
O11      O      0.480700000000     0.259070000000     0.212020000000    -0.394105   
O12      O      0.480780000000     0.252710000000     0.305600000000    -0.39422    
O13      O      0.031640000000     0.259700000000     0.305600000000    -0.39303    
O14      O      0.031720000000     0.253330000000     0.212020000000    -0.392944   
O15      O      0.030810000000     0.303060000000     0.256440000000    -0.394425   
O16      O      0.032630000000     0.209930000000     0.261160000000    -0.392883   
O17      O      0.228760000000     0.051920000000     0.258830000000    -0.391772   
O18      O      0.232460000000     0.458740000000     0.258820000000    -0.398872   
O19      O      0.230620000000     0.504120000000     0.305690000000    -0.394869   
O20      O      0.230610000000     0.004120000000     0.211960000000    -0.395674   
O21      O      0.281820000000     0.008300000000     0.211950000000    -0.395248   
O22      O      0.281830000000     0.508300000000     0.305690000000    -0.394714   
O23      O      0.283680000000     0.460500000000     0.258820000000    -0.392089   
O24      O      0.279980000000     0.053680000000     0.258830000000    -0.398402   
O25      O      0.228760000000     0.210500000000     0.258820000000    -0.392277   
O26      O      0.232460000000     0.303680000000     0.258830000000    -0.39892    
O27      O      0.230610000000     0.258310000000     0.211960000000    -0.394674   
O28      O      0.230620000000     0.258300000000     0.305700000000    -0.39491    
O29      O      0.281820000000     0.254120000000     0.305700000000    -0.39479    
O30      O      0.281820000000     0.254100000000     0.211950000000    -0.394755   
O31      O      0.283680000000     0.301920000000     0.258820000000    -0.392231   
O32      O      0.279980000000     0.208740000000     0.258830000000    -0.398897   
O33      O      0.458750000000     0.029960000000     0.508820000000    -0.397763   
O34      O      0.051930000000     0.033660000000     0.508820000000    -0.390848   
O35      O      0.004120000000     0.031800000000     0.461950000000    -0.394745   
O36      O      0.504110000000     0.031810000000     0.055690000000    -0.393006   
O37      O      0.508330000000     0.480610000000     0.055690000000    -0.394199   
O38      O      0.008300000000     0.480600000000     0.461950000000    -0.39532    
O39      O      0.053690000000     0.482450000000     0.008810000000    -0.398814   
O40      O      0.460500000000     0.478740000000     0.008830000000    -0.392466   
O41      O      0.459940000000     0.282630000000     0.506490000000    -0.394065   
O42      O      0.053070000000     0.280810000000     0.511210000000    -0.395088   
O43      O      0.009700000000     0.281640000000     0.462050000000    -0.394539   
O44      O      0.503340000000     0.281720000000     0.055630000000    -0.393392   
O45      O      0.509090000000     0.230690000000     0.055630000000    -0.393281   
O46      O      0.002720000000     0.230770000000     0.462050000000    -0.395128   
O47      O      0.052480000000     0.229780000000     0.006490000000    -0.394085   
O48      O      0.459360000000     0.231600000000     0.011210000000    -0.395795   
O49      O      0.210500000000     0.033670000000     0.508820000000    -0.391065   
O50      O      0.303690000000     0.029960000000     0.508830000000    -0.397824   
O51      O      0.258310000000     0.031810000000     0.461960000000    -0.393606   
O52      O      0.258300000000     0.031810000000     0.055690000000    -0.393052   
O53      O      0.254120000000     0.480610000000     0.055690000000    -0.394292   
O54      O      0.254130000000     0.480600000000     0.461960000000    -0.394751   
O55      O      0.301930000000     0.478750000000     0.008830000000    -0.392573   
O56      O      0.208750000000     0.482450000000     0.008820000000    -0.399366   
O57      O      0.209010000000     0.280890000000     0.509060000000    -0.398372   
O58      O      0.302250000000     0.282760000000     0.508620000000    -0.392637   
O59      O      0.254280000000     0.281820000000     0.461960000000    -0.394866   
O60      O      0.254610000000     0.281850000000     0.055710000000    -0.394025   
O61      O      0.257810000000     0.230570000000     0.055700000000    -0.394097   
O62      O      0.258150000000     0.230600000000     0.461960000000    -0.394914   
O63      O      0.303410000000     0.231520000000     0.009060000000    -0.398664   
O64      O      0.210170000000     0.229660000000     0.008610000000    -0.393108   
O65      O      0.481520000000     0.053400000000     0.758590000000    -0.39777    
O66      O      0.479660000000     0.460160000000     0.759030000000    -0.392627   
O67      O      0.480590000000     0.508130000000     0.805680000000    -0.394487   
O68      O      0.480570000000     0.007810000000     0.711940000000    -0.395291   
O69      O      0.031850000000     0.004600000000     0.711940000000    -0.394574   
O70      O      0.031820000000     0.504260000000     0.805680000000    -0.393536   
O71      O      0.030900000000     0.459000000000     0.758580000000    -0.397081   
O72      O      0.032760000000     0.052240000000     0.759030000000    -0.391056   
O73      O      0.481600000000     0.209350000000     0.756440000000    -0.395354   
O74      O      0.479780000000     0.302470000000     0.761160000000    -0.394056   
O75      O      0.480700000000     0.259070000000     0.712020000000    -0.394127   
O76      O      0.480770000000     0.252710000000     0.805600000000    -0.393912   
O77      O      0.031640000000     0.259700000000     0.805600000000    -0.39286    
O78      O      0.031720000000     0.253330000000     0.712020000000    -0.392974   
O79      O      0.030810000000     0.303060000000     0.756440000000    -0.394401   
O80      O      0.032630000000     0.209930000000     0.761160000000    -0.392839   
O81      O      0.228760000000     0.051920000000     0.758830000000    -0.391731   
O82      O      0.232460000000     0.458740000000     0.758820000000    -0.398923   
O83      O      0.230620000000     0.504120000000     0.805690000000    -0.39474    
O84      O      0.230620000000     0.004120000000     0.711960000000    -0.395862   
O85      O      0.281820000000     0.008300000000     0.711950000000    -0.395334   
O86      O      0.281830000000     0.508300000000     0.805690000000    -0.394528   
O87      O      0.283680000000     0.460500000000     0.758820000000    -0.39213    
O88      O      0.279980000000     0.053680000000     0.758830000000    -0.398373   
O89      O      0.228760000000     0.210500000000     0.758820000000    -0.392237   
O90      O      0.232460000000     0.303680000000     0.758830000000    -0.398894   
O91      O      0.230620000000     0.258310000000     0.711960000000    -0.394855   
O92      O      0.230620000000     0.258300000000     0.805700000000    -0.394779   
O93      O      0.281820000000     0.254120000000     0.805700000000    -0.394656   
O94      O      0.281820000000     0.254100000000     0.711950000000    -0.394848   
O95      O      0.283680000000     0.301920000000     0.758810000000    -0.392189   
O96      O      0.279980000000     0.208740000000     0.758840000000    -0.398869   
O97      O      0.458750000000     0.029960000000     0.008820000000    -0.398044   
O98      O      0.051930000000     0.033660000000     0.008820000000    -0.39111    
O99      O      0.004120000000     0.031800000000     0.961950000000    -0.390656   
O100     O      0.504110000000     0.031810000000     0.555690000000    -0.393622   
O101     O      0.508330000000     0.480600000000     0.555700000000    -0.394609   
O102     O      0.008300000000     0.480600000000     0.961950000000    -0.391244   
O103     O      0.053690000000     0.482440000000     0.508810000000    -0.398389   
O104     O      0.460500000000     0.478740000000     0.508830000000    -0.392179   
O105     O      0.459950000000     0.282630000000     0.006490000000    -0.394485   
O106     O      0.053070000000     0.280810000000     0.011210000000    -0.395321   
O107     O      0.009700000000     0.281640000000     0.962050000000    -0.390498   
O108     O      0.503340000000     0.281720000000     0.555630000000    -0.393946   
O109     O      0.509090000000     0.230690000000     0.555630000000    -0.394043   
O110     O      0.002720000000     0.230780000000     0.962050000000    -0.391188   
O111     O      0.052480000000     0.229780000000     0.506490000000    -0.393689   
O112     O      0.459360000000     0.231600000000     0.511210000000    -0.395586   
O113     O      0.210500000000     0.033670000000     0.008820000000    -0.39139    
O114     O      0.303680000000     0.029960000000     0.008830000000    -0.398105   
O115     O      0.258310000000     0.031810000000     0.961950000000    -0.389506   
O116     O      0.258300000000     0.031810000000     0.555690000000    -0.393725   
O117     O      0.254120000000     0.480610000000     0.555700000000    -0.394929   
O118     O      0.254130000000     0.480600000000     0.961960000000    -0.39071    
O119     O      0.301930000000     0.478740000000     0.508830000000    -0.392111   
O120     O      0.208750000000     0.482450000000     0.508820000000    -0.398929   
O121     O      0.209010000000     0.280900000000     0.009060000000    -0.398522   
O122     O      0.302260000000     0.282760000000     0.008620000000    -0.392939   
O123     O      0.254280000000     0.281820000000     0.961970000000    -0.390776   
O124     O      0.254610000000     0.281840000000     0.555710000000    -0.394746   
O125     O      0.257810000000     0.230570000000     0.555700000000    -0.394919   
O126     O      0.258150000000     0.230600000000     0.961960000000    -0.390775   
O127     O      0.303410000000     0.231520000000     0.509060000000    -0.398323   
O128     O      0.210170000000     0.229660000000     0.508610000000    -0.392854   
O129     O      0.481520000000     0.553400000000     0.258590000000    -0.39834    
O130     O      0.479660000000     0.960160000000     0.259030000000    -0.389475   
O131     O      0.480590000000     0.008130000000     0.305680000000    -0.395093   
O132     O      0.480570000000     0.507800000000     0.211940000000    -0.394821   
O133     O      0.031850000000     0.504600000000     0.211940000000    -0.393563   
O134     O      0.031820000000     0.004260000000     0.305690000000    -0.394615   
O135     O      0.030900000000     0.959000000000     0.258580000000    -0.393984   
O136     O      0.032760000000     0.552240000000     0.259040000000    -0.391527   
O137     O      0.481600000000     0.709350000000     0.256440000000    -0.395392   
O138     O      0.479780000000     0.802470000000     0.261160000000    -0.394068   
O139     O      0.480700000000     0.759070000000     0.212020000000    -0.394094   
O140     O      0.480780000000     0.752710000000     0.305600000000    -0.394222   
O141     O      0.031640000000     0.759700000000     0.305600000000    -0.393008   
O142     O      0.031720000000     0.753330000000     0.212020000000    -0.392933   
O143     O      0.030810000000     0.803060000000     0.256440000000    -0.39439    
O144     O      0.032630000000     0.709930000000     0.261160000000    -0.392888   
O145     O      0.228760000000     0.551920000000     0.258830000000    -0.392209   
O146     O      0.232460000000     0.958740000000     0.258820000000    -0.395829   
O147     O      0.230620000000     0.004120000000     0.305690000000    -0.39594    
O148     O      0.230610000000     0.504120000000     0.211960000000    -0.394788   
O149     O      0.281820000000     0.508300000000     0.211950000000    -0.39482    
O150     O      0.281830000000     0.008300000000     0.305690000000    -0.395171   
O151     O      0.283680000000     0.960500000000     0.258820000000    -0.388978   
O152     O      0.279980000000     0.553680000000     0.258830000000    -0.398935   
O153     O      0.228760000000     0.710500000000     0.258820000000    -0.392192   
O154     O      0.232460000000     0.803680000000     0.258830000000    -0.398888   
O155     O      0.230610000000     0.758310000000     0.211960000000    -0.394663   
O156     O      0.230620000000     0.758300000000     0.305700000000    -0.394904   
O157     O      0.281820000000     0.754120000000     0.305700000000    -0.394775   
O158     O      0.281820000000     0.754100000000     0.211950000000    -0.394741   
O159     O      0.283680000000     0.801920000000     0.258820000000    -0.392184   
O160     O      0.279980000000     0.708740000000     0.258830000000    -0.398826   
O161     O      0.458750000000     0.529960000000     0.508820000000    -0.398974   
O162     O      0.051930000000     0.533660000000     0.508820000000    -0.391858   
O163     O      0.004120000000     0.531800000000     0.461950000000    -0.395892   
O164     O      0.504110000000     0.531810000000     0.055690000000    -0.394215   
O165     O      0.508330000000     0.980600000000     0.055690000000    -0.390139   
O166     O      0.008300000000     0.980600000000     0.461950000000    -0.391425   
O167     O      0.053690000000     0.982440000000     0.008810000000    -0.394943   
O168     O      0.460500000000     0.978740000000     0.008830000000    -0.38851    
O169     O      0.459940000000     0.782630000000     0.506490000000    -0.394032   
O170     O      0.053070000000     0.780810000000     0.511210000000    -0.395074   
O171     O      0.009700000000     0.781640000000     0.462050000000    -0.39457    
O172     O      0.503340000000     0.781720000000     0.055630000000    -0.393267   
O173     O      0.509090000000     0.730690000000     0.055630000000    -0.393386   
O174     O      0.002720000000     0.730780000000     0.462050000000    -0.395284   
O175     O      0.052480000000     0.729780000000     0.006490000000    -0.394086   
O176     O      0.459360000000     0.731600000000     0.011210000000    -0.395807   
O177     O      0.210500000000     0.533670000000     0.508820000000    -0.392225   
O178     O      0.303690000000     0.529960000000     0.508830000000    -0.39898    
O179     O      0.258310000000     0.531810000000     0.461960000000    -0.394756   
O180     O      0.258300000000     0.531810000000     0.055690000000    -0.394198   
O181     O      0.254120000000     0.980610000000     0.055690000000    -0.390393   
O182     O      0.254130000000     0.980600000000     0.461960000000    -0.39087    
O183     O      0.301930000000     0.978740000000     0.008830000000    -0.388475   
O184     O      0.208750000000     0.982450000000     0.008820000000    -0.39558    
O185     O      0.209010000000     0.780900000000     0.509060000000    -0.398198   
O186     O      0.302250000000     0.782760000000     0.508620000000    -0.392593   
O187     O      0.254280000000     0.781820000000     0.461960000000    -0.39483    
O188     O      0.254610000000     0.781840000000     0.055710000000    -0.394054   
O189     O      0.257810000000     0.730570000000     0.055700000000    -0.394256   
O190     O      0.258150000000     0.730600000000     0.461960000000    -0.394917   
O191     O      0.303410000000     0.731520000000     0.009060000000    -0.398673   
O192     O      0.210170000000     0.729660000000     0.008610000000    -0.393109   
O193     O      0.481520000000     0.553400000000     0.758590000000    -0.398298   
O194     O      0.479660000000     0.960160000000     0.759030000000    -0.38952    
O195     O      0.480590000000     0.008130000000     0.805680000000    -0.394929   
O196     O      0.480570000000     0.507810000000     0.711940000000    -0.394837   
O197     O      0.031850000000     0.504600000000     0.711940000000    -0.3936     
O198     O      0.031820000000     0.004260000000     0.805680000000    -0.394519   
O199     O      0.030900000000     0.959000000000     0.758580000000    -0.394052   
O200     O      0.032760000000     0.552240000000     0.759030000000    -0.391471   
O201     O      0.481600000000     0.709340000000     0.756440000000    -0.395443   
O202     O      0.479780000000     0.802470000000     0.761160000000    -0.393988   
O203     O      0.480700000000     0.759070000000     0.712020000000    -0.394105   
O204     O      0.480770000000     0.752710000000     0.805600000000    -0.393886   
O205     O      0.031640000000     0.759690000000     0.805600000000    -0.392885   
O206     O      0.031720000000     0.753330000000     0.712020000000    -0.392975   
O207     O      0.030810000000     0.803060000000     0.756440000000    -0.394291   
O208     O      0.032630000000     0.709930000000     0.761160000000    -0.39295    
O209     O      0.228760000000     0.551920000000     0.758830000000    -0.392174   
O210     O      0.232460000000     0.958740000000     0.758820000000    -0.395724   
O211     O      0.230620000000     0.004120000000     0.805690000000    -0.395692   
O212     O      0.230620000000     0.504120000000     0.711960000000    -0.394886   
O213     O      0.281820000000     0.508300000000     0.711950000000    -0.394894   
O214     O      0.281830000000     0.008300000000     0.805690000000    -0.394932   
O215     O      0.283680000000     0.960500000000     0.758820000000    -0.388852   
O216     O      0.279980000000     0.553680000000     0.758830000000    -0.398912   
O217     O      0.228760000000     0.710500000000     0.758820000000    -0.392239   
O218     O      0.232460000000     0.803680000000     0.758830000000    -0.398862   
O219     O      0.230620000000     0.758310000000     0.711960000000    -0.394837   
O220     O      0.230620000000     0.758300000000     0.805700000000    -0.394782   
O221     O      0.281820000000     0.754120000000     0.805700000000    -0.394724   
O222     O      0.281820000000     0.754100000000     0.711950000000    -0.394751   
O223     O      0.283680000000     0.801920000000     0.758820000000    -0.392142   
O224     O      0.279980000000     0.708740000000     0.758840000000    -0.398878   
O225     O      0.458750000000     0.529960000000     0.008820000000    -0.399256   
O226     O      0.051930000000     0.533670000000     0.008820000000    -0.392078   
O227     O      0.004120000000     0.531800000000     0.961950000000    -0.391793   
O228     O      0.504110000000     0.531810000000     0.555690000000    -0.394773   
O229     O      0.508330000000     0.980600000000     0.555700000000    -0.390706   
O230     O      0.008300000000     0.980600000000     0.961950000000    -0.38737    
O231     O      0.053690000000     0.982450000000     0.508810000000    -0.394763   
O232     O      0.460500000000     0.978740000000     0.508830000000    -0.388226   
O233     O      0.459950000000     0.782630000000     0.006490000000    -0.394451   
O234     O      0.053070000000     0.780810000000     0.011210000000    -0.3953     
O235     O      0.009700000000     0.781640000000     0.962050000000    -0.390468   
O236     O      0.503340000000     0.781720000000     0.555630000000    -0.39392    
O237     O      0.509090000000     0.730690000000     0.555630000000    -0.39405    
O238     O      0.002720000000     0.730780000000     0.962050000000    -0.391196   
O239     O      0.052480000000     0.729780000000     0.506490000000    -0.393688   
O240     O      0.459360000000     0.731600000000     0.511210000000    -0.395595   
O241     O      0.210500000000     0.533670000000     0.008820000000    -0.392462   
O242     O      0.303680000000     0.529960000000     0.008830000000    -0.399366   
O243     O      0.258310000000     0.531810000000     0.961950000000    -0.390646   
O244     O      0.258300000000     0.531810000000     0.555690000000    -0.394905   
O245     O      0.254120000000     0.980610000000     0.555690000000    -0.391059   
O246     O      0.254130000000     0.980600000000     0.961960000000    -0.386827   
O247     O      0.301930000000     0.978750000000     0.508830000000    -0.388329   
O248     O      0.208750000000     0.982450000000     0.508820000000    -0.395263   
O249     O      0.209010000000     0.780900000000     0.009060000000    -0.39851    
O250     O      0.302260000000     0.782760000000     0.008620000000    -0.392905   
O251     O      0.254280000000     0.781820000000     0.961970000000    -0.390751   
O252     O      0.254610000000     0.781850000000     0.555710000000    -0.394644   
O253     O      0.257810000000     0.730570000000     0.555700000000    -0.394747   
O254     O      0.258150000000     0.730600000000     0.961960000000    -0.390784   
O255     O      0.303410000000     0.731520000000     0.509070000000    -0.398319   
O256     O      0.210170000000     0.729660000000     0.508610000000    -0.392789   
O257     O      0.981520000000     0.053400000000     0.258590000000    -0.394019   
O258     O      0.979660000000     0.460160000000     0.259030000000    -0.388708   
O259     O      0.980590000000     0.508130000000     0.305680000000    -0.390751   
O260     O      0.980570000000     0.007810000000     0.211940000000    -0.391369   
O261     O      0.531850000000     0.004600000000     0.211940000000    -0.395678   
O262     O      0.531820000000     0.504260000000     0.305690000000    -0.394779   
O263     O      0.530900000000     0.459000000000     0.258580000000    -0.39828    
O264     O      0.532760000000     0.052240000000     0.259040000000    -0.392143   
O265     O      0.981600000000     0.209350000000     0.256440000000    -0.391601   
O266     O      0.979780000000     0.302470000000     0.261160000000    -0.390236   
O267     O      0.980700000000     0.259070000000     0.212020000000    -0.3902     
O268     O      0.980770000000     0.252710000000     0.305600000000    -0.390173   
O269     O      0.531640000000     0.259700000000     0.305600000000    -0.394233   
O270     O      0.531720000000     0.253330000000     0.212020000000    -0.394106   
O271     O      0.530810000000     0.303060000000     0.256440000000    -0.395468   
O272     O      0.532630000000     0.209930000000     0.261160000000    -0.394197   
O273     O      0.728760000000     0.051920000000     0.258830000000    -0.391773   
O274     O      0.732460000000     0.458740000000     0.258820000000    -0.398877   
O275     O      0.730620000000     0.504120000000     0.305690000000    -0.394873   
O276     O      0.730610000000     0.004120000000     0.211960000000    -0.395866   
O277     O      0.781820000000     0.008300000000     0.211950000000    -0.395133   
O278     O      0.781830000000     0.508300000000     0.305690000000    -0.394678   
O279     O      0.783680000000     0.460500000000     0.258820000000    -0.392054   
O280     O      0.779980000000     0.053680000000     0.258830000000    -0.398386   
O281     O      0.728760000000     0.210500000000     0.258820000000    -0.392257   
O282     O      0.732460000000     0.303680000000     0.258830000000    -0.398908   
O283     O      0.730620000000     0.258310000000     0.211960000000    -0.394808   
O284     O      0.730620000000     0.258300000000     0.305700000000    -0.394896   
O285     O      0.781820000000     0.254120000000     0.305700000000    -0.394748   
O286     O      0.781820000000     0.254100000000     0.211950000000    -0.394772   
O287     O      0.783680000000     0.301920000000     0.258820000000    -0.392187   
O288     O      0.779980000000     0.208740000000     0.258830000000    -0.398866   
O289     O      0.958750000000     0.029960000000     0.508820000000    -0.394553   
O290     O      0.551930000000     0.033670000000     0.508820000000    -0.391021   
O291     O      0.504120000000     0.031800000000     0.461950000000    -0.393766   
O292     O      0.004110000000     0.031810000000     0.055690000000    -0.393966   
O293     O      0.008330000000     0.480600000000     0.055690000000    -0.394506   
O294     O      0.508300000000     0.480600000000     0.461950000000    -0.394885   
O295     O      0.553690000000     0.482450000000     0.008810000000    -0.399331   
O296     O      0.960500000000     0.478740000000     0.008830000000    -0.389292   
O297     O      0.959950000000     0.282630000000     0.506490000000    -0.390838   
O298     O      0.553070000000     0.280810000000     0.511210000000    -0.395562   
O299     O      0.509700000000     0.281640000000     0.462050000000    -0.39415    
O300     O      0.003340000000     0.281720000000     0.055630000000    -0.394413   
O301     O      0.009090000000     0.230690000000     0.055630000000    -0.393695   
O302     O      0.502720000000     0.230770000000     0.462050000000    -0.394073   
O303     O      0.552480000000     0.229780000000     0.006490000000    -0.394554   
O304     O      0.959360000000     0.231600000000     0.011210000000    -0.392579   
O305     O      0.710500000000     0.033670000000     0.508820000000    -0.390976   
O306     O      0.803680000000     0.029960000000     0.508830000000    -0.397921   
O307     O      0.758310000000     0.031800000000     0.461960000000    -0.393775   
O308     O      0.758300000000     0.031810000000     0.055690000000    -0.393045   
O309     O      0.754120000000     0.480610000000     0.055690000000    -0.39428    
O310     O      0.754130000000     0.480600000000     0.461960000000    -0.394794   
O311     O      0.801930000000     0.478750000000     0.008830000000    -0.392529   
O312     O      0.708750000000     0.482450000000     0.008820000000    -0.399373   
O313     O      0.709010000000     0.280890000000     0.509060000000    -0.398359   
O314     O      0.802260000000     0.282760000000     0.508620000000    -0.392575   
O315     O      0.754280000000     0.281820000000     0.461960000000    -0.394842   
O316     O      0.754610000000     0.281850000000     0.055710000000    -0.394013   
O317     O      0.757810000000     0.230570000000     0.055700000000    -0.39409    
O318     O      0.758150000000     0.230600000000     0.461960000000    -0.394905   
O319     O      0.803410000000     0.231520000000     0.009060000000    -0.398628   
O320     O      0.710170000000     0.229660000000     0.008610000000    -0.393112   
O321     O      0.981520000000     0.053400000000     0.758590000000    -0.394001   
O322     O      0.979660000000     0.460160000000     0.759030000000    -0.388601   
O323     O      0.980590000000     0.508130000000     0.805680000000    -0.3906     
O324     O      0.980570000000     0.007810000000     0.711940000000    -0.391407   
O325     O      0.531850000000     0.004600000000     0.711940000000    -0.395719   
O326     O      0.531820000000     0.504260000000     0.805680000000    -0.39468    
O327     O      0.530900000000     0.459000000000     0.758580000000    -0.398182   
O328     O      0.532760000000     0.052240000000     0.759030000000    -0.392116   
O329     O      0.981600000000     0.209350000000     0.756440000000    -0.391592   
O330     O      0.979780000000     0.302470000000     0.761160000000    -0.390193   
O331     O      0.980700000000     0.259070000000     0.712020000000    -0.390237   
O332     O      0.980770000000     0.252710000000     0.805600000000    -0.390036   
O333     O      0.531640000000     0.259700000000     0.805600000000    -0.394005   
O334     O      0.531720000000     0.253330000000     0.712020000000    -0.394122   
O335     O      0.530810000000     0.303060000000     0.756440000000    -0.395527   
O336     O      0.532630000000     0.209930000000     0.761160000000    -0.394058   
O337     O      0.728760000000     0.051920000000     0.758830000000    -0.391743   
O338     O      0.732460000000     0.458740000000     0.758820000000    -0.398942   
O339     O      0.730620000000     0.504120000000     0.805690000000    -0.394817   
O340     O      0.730610000000     0.004120000000     0.711960000000    -0.395726   
O341     O      0.781820000000     0.008300000000     0.711950000000    -0.395274   
O342     O      0.781820000000     0.508300000000     0.805690000000    -0.39467    
O343     O      0.783680000000     0.460500000000     0.758820000000    -0.392125   
O344     O      0.779980000000     0.053680000000     0.758830000000    -0.398378   
O345     O      0.728760000000     0.210500000000     0.758820000000    -0.392209   
O346     O      0.732460000000     0.303680000000     0.758830000000    -0.398876   
O347     O      0.730610000000     0.258310000000     0.711960000000    -0.39468    
O348     O      0.730620000000     0.258300000000     0.805700000000    -0.394752   
O349     O      0.781820000000     0.254120000000     0.805700000000    -0.394606   
O350     O      0.781820000000     0.254100000000     0.711950000000    -0.394739   
O351     O      0.783680000000     0.301920000000     0.758810000000    -0.392143   
O352     O      0.779980000000     0.208740000000     0.758840000000    -0.398834   
O353     O      0.958750000000     0.029960000000     0.008820000000    -0.394861   
O354     O      0.551930000000     0.033670000000     0.008820000000    -0.391311   
O355     O      0.504120000000     0.031800000000     0.961950000000    -0.389682   
O356     O      0.004110000000     0.031810000000     0.555690000000    -0.394582   
O357     O      0.008330000000     0.480600000000     0.555700000000    -0.395064   
O358     O      0.508300000000     0.480600000000     0.961950000000    -0.390803   
O359     O      0.553680000000     0.482440000000     0.508810000000    -0.398937   
O360     O      0.960500000000     0.478740000000     0.508830000000    -0.388964   
O361     O      0.959940000000     0.282630000000     0.006490000000    -0.391395   
O362     O      0.553070000000     0.280810000000     0.011210000000    -0.395831   
O363     O      0.509700000000     0.281640000000     0.962050000000    -0.390075   
O364     O      0.003340000000     0.281720000000     0.555630000000    -0.394982   
O365     O      0.009090000000     0.230690000000     0.555630000000    -0.394451   
O366     O      0.502720000000     0.230770000000     0.962050000000    -0.389979   
O367     O      0.552480000000     0.229780000000     0.506490000000    -0.394157   
O368     O      0.959360000000     0.231600000000     0.511210000000    -0.392322   
O369     O      0.710500000000     0.033670000000     0.008820000000    -0.391393   
O370     O      0.803680000000     0.029960000000     0.008830000000    -0.39807    
O371     O      0.758310000000     0.031810000000     0.961950000000    -0.389505   
O372     O      0.758300000000     0.031810000000     0.555690000000    -0.393739   
O373     O      0.754120000000     0.480610000000     0.555700000000    -0.394919   
O374     O      0.754130000000     0.480600000000     0.961960000000    -0.390705   
O375     O      0.801930000000     0.478740000000     0.508830000000    -0.392053   
O376     O      0.708750000000     0.482450000000     0.508820000000    -0.398896   
O377     O      0.709010000000     0.280900000000     0.009060000000    -0.398529   
O378     O      0.802260000000     0.282760000000     0.008620000000    -0.392896   
O379     O      0.754280000000     0.281820000000     0.961970000000    -0.390772   
O380     O      0.754610000000     0.281840000000     0.555710000000    -0.394722   
O381     O      0.757810000000     0.230570000000     0.555700000000    -0.394912   
O382     O      0.758150000000     0.230600000000     0.961960000000    -0.390776   
O383     O      0.803410000000     0.231520000000     0.509060000000    -0.398321   
O384     O      0.710170000000     0.229660000000     0.508610000000    -0.392857   
O385     O      0.981520000000     0.553400000000     0.258590000000    -0.394551   
O386     O      0.979660000000     0.960160000000     0.259030000000    -0.385455   
O387     O      0.980590000000     0.008130000000     0.305680000000    -0.391202   
O388     O      0.980570000000     0.507800000000     0.211940000000    -0.390917   
O389     O      0.531850000000     0.504600000000     0.211940000000    -0.394711   
O390     O      0.531820000000     0.004260000000     0.305690000000    -0.39576    
O391     O      0.530900000000     0.959000000000     0.258580000000    -0.395077   
O392     O      0.532760000000     0.552240000000     0.259040000000    -0.392593   
O393     O      0.981600000000     0.709350000000     0.256440000000    -0.391614   
O394     O      0.979780000000     0.802470000000     0.261160000000    -0.39019    
O395     O      0.980700000000     0.759070000000     0.212020000000    -0.390191   
O396     O      0.980770000000     0.752710000000     0.305600000000    -0.390174   
O397     O      0.531640000000     0.759700000000     0.305600000000    -0.394218   
O398     O      0.531720000000     0.753330000000     0.212020000000    -0.394089   
O399     O      0.530810000000     0.803060000000     0.256440000000    -0.395525   
O400     O      0.532630000000     0.709930000000     0.261160000000    -0.394111   
O401     O      0.728760000000     0.551920000000     0.258830000000    -0.392211   
O402     O      0.732460000000     0.958740000000     0.258820000000    -0.395834   
O403     O      0.730620000000     0.004120000000     0.305690000000    -0.395853   
O404     O      0.730610000000     0.504120000000     0.211960000000    -0.394889   
O405     O      0.781820000000     0.508300000000     0.211950000000    -0.394691   
O406     O      0.781830000000     0.008300000000     0.305690000000    -0.395122   
O407     O      0.783680000000     0.960500000000     0.258820000000    -0.388945   
O408     O      0.779980000000     0.553680000000     0.258830000000    -0.398919   
O409     O      0.728760000000     0.710500000000     0.258820000000    -0.392171   
O410     O      0.732460000000     0.803680000000     0.258830000000    -0.398875   
O411     O      0.730620000000     0.758310000000     0.211960000000    -0.394797   
O412     O      0.730620000000     0.758300000000     0.305700000000    -0.394889   
O413     O      0.781820000000     0.754120000000     0.305700000000    -0.394733   
O414     O      0.781820000000     0.754100000000     0.211950000000    -0.394759   
O415     O      0.783680000000     0.801920000000     0.258820000000    -0.39214    
O416     O      0.779980000000     0.708740000000     0.258830000000    -0.398795   
O417     O      0.958750000000     0.529960000000     0.508820000000    -0.395747   
O418     O      0.551930000000     0.533660000000     0.508820000000    -0.392189   
O419     O      0.504120000000     0.531800000000     0.461950000000    -0.39492    
O420     O      0.004110000000     0.531810000000     0.055690000000    -0.395108   
O421     O      0.008330000000     0.980600000000     0.055690000000    -0.390617   
O422     O      0.508300000000     0.980600000000     0.461950000000    -0.390979   
O423     O      0.553690000000     0.982440000000     0.008810000000    -0.395394   
O424     O      0.960500000000     0.978740000000     0.008830000000    -0.385364   
O425     O      0.959950000000     0.782630000000     0.506490000000    -0.390808   
O426     O      0.553070000000     0.780810000000     0.511210000000    -0.395546   
O427     O      0.509700000000     0.781640000000     0.462050000000    -0.394178   
O428     O      0.003340000000     0.781720000000     0.055630000000    -0.394282   
O429     O      0.009090000000     0.730690000000     0.055630000000    -0.393796   
O430     O      0.502720000000     0.730780000000     0.462050000000    -0.394232   
O431     O      0.552480000000     0.729780000000     0.006490000000    -0.394556   
O432     O      0.959360000000     0.731600000000     0.011210000000    -0.392685   
O433     O      0.710500000000     0.533670000000     0.508820000000    -0.392137   
O434     O      0.803680000000     0.529960000000     0.508830000000    -0.399078   
O435     O      0.758310000000     0.531800000000     0.461960000000    -0.394924   
O436     O      0.758300000000     0.531810000000     0.055690000000    -0.394191   
O437     O      0.754120000000     0.980610000000     0.055690000000    -0.390383   
O438     O      0.754130000000     0.980600000000     0.461960000000    -0.390916   
O439     O      0.801930000000     0.978740000000     0.008830000000    -0.388434   
O440     O      0.708750000000     0.982450000000     0.008820000000    -0.395587   
O441     O      0.709010000000     0.780900000000     0.509060000000    -0.398185   
O442     O      0.802260000000     0.782760000000     0.508620000000    -0.392531   
O443     O      0.754280000000     0.781820000000     0.461960000000    -0.394807   
O444     O      0.754610000000     0.781840000000     0.055710000000    -0.394049   
O445     O      0.757810000000     0.730570000000     0.055700000000    -0.394252   
O446     O      0.758150000000     0.730600000000     0.461960000000    -0.394908   
O447     O      0.803410000000     0.731520000000     0.009060000000    -0.398641   
O448     O      0.710170000000     0.729660000000     0.008610000000    -0.393171   
O449     O      0.981520000000     0.553400000000     0.758590000000    -0.394491   
O450     O      0.979660000000     0.960160000000     0.759030000000    -0.385512   
O451     O      0.980590000000     0.008130000000     0.805680000000    -0.391053   
O452     O      0.980570000000     0.507810000000     0.711940000000    -0.390943   
O453     O      0.531850000000     0.504600000000     0.711940000000    -0.394747   
O454     O      0.531820000000     0.004260000000     0.805680000000    -0.395661   
O455     O      0.530900000000     0.959000000000     0.758580000000    -0.395143   
O456     O      0.532760000000     0.552240000000     0.759030000000    -0.392564   
O457     O      0.981600000000     0.709340000000     0.756440000000    -0.39158    
O458     O      0.979780000000     0.802470000000     0.761160000000    -0.390125   
O459     O      0.980700000000     0.759070000000     0.712020000000    -0.390215   
O460     O      0.980770000000     0.752710000000     0.805600000000    -0.39001    
O461     O      0.531640000000     0.759690000000     0.805600000000    -0.39403    
O462     O      0.531720000000     0.753330000000     0.712020000000    -0.394121   
O463     O      0.530810000000     0.803060000000     0.756440000000    -0.395413   
O464     O      0.532630000000     0.709930000000     0.761160000000    -0.394073   
O465     O      0.728760000000     0.551920000000     0.758830000000    -0.392185   
O466     O      0.732460000000     0.958740000000     0.758820000000    -0.395744   
O467     O      0.730620000000     0.004120000000     0.805690000000    -0.3958     
O468     O      0.730610000000     0.504120000000     0.711960000000    -0.394748   
O469     O      0.781820000000     0.508300000000     0.711950000000    -0.394833   
O470     O      0.781820000000     0.008300000000     0.805690000000    -0.395105   
O471     O      0.783680000000     0.960500000000     0.758820000000    -0.38885    
O472     O      0.779980000000     0.553680000000     0.758830000000    -0.398917   
O473     O      0.728760000000     0.710500000000     0.758820000000    -0.392236   
O474     O      0.732460000000     0.803680000000     0.758830000000    -0.398862   
O475     O      0.730610000000     0.758310000000     0.711960000000    -0.394682   
O476     O      0.730620000000     0.758300000000     0.805700000000    -0.39478    
O477     O      0.781820000000     0.754120000000     0.805700000000    -0.394699   
O478     O      0.781820000000     0.754100000000     0.711950000000    -0.394648   
O479     O      0.783680000000     0.801920000000     0.758810000000    -0.39211    
O480     O      0.779980000000     0.708740000000     0.758840000000    -0.39886    
O481     O      0.958750000000     0.529960000000     0.008820000000    -0.396054   
O482     O      0.551930000000     0.533670000000     0.008820000000    -0.392439   
O483     O      0.504120000000     0.531800000000     0.961950000000    -0.390828   
O484     O      0.004110000000     0.531810000000     0.555690000000    -0.395728   
O485     O      0.008330000000     0.980600000000     0.555700000000    -0.391172   
O486     O      0.508300000000     0.980600000000     0.961950000000    -0.386912   
O487     O      0.553680000000     0.982450000000     0.508810000000    -0.395248   
O488     O      0.960500000000     0.978740000000     0.508830000000    -0.385033   
O489     O      0.959940000000     0.782630000000     0.006490000000    -0.391267   
O490     O      0.553070000000     0.780810000000     0.011210000000    -0.395815   
O491     O      0.509700000000     0.781640000000     0.962050000000    -0.390104   
O492     O      0.003340000000     0.781720000000     0.555630000000    -0.395053   
O493     O      0.009090000000     0.730690000000     0.555630000000    -0.39436    
O494     O      0.502720000000     0.730780000000     0.962050000000    -0.390142   
O495     O      0.552480000000     0.729780000000     0.506490000000    -0.394158   
O496     O      0.959360000000     0.731600000000     0.511210000000    -0.392328   
O497     O      0.710500000000     0.533670000000     0.008820000000    -0.392466   
O498     O      0.803680000000     0.529960000000     0.008830000000    -0.399331   
O499     O      0.758310000000     0.531810000000     0.961950000000    -0.390649   
O500     O      0.758300000000     0.531810000000     0.555690000000    -0.394919   
O501     O      0.754120000000     0.980610000000     0.555690000000    -0.39105    
O502     O      0.754130000000     0.980600000000     0.961960000000    -0.386823   
O503     O      0.801930000000     0.978750000000     0.508830000000    -0.388274   
O504     O      0.708750000000     0.982450000000     0.508820000000    -0.395229   
O505     O      0.709010000000     0.780890000000     0.009060000000    -0.398674   
O506     O      0.802260000000     0.782760000000     0.008620000000    -0.392868   
O507     O      0.754280000000     0.781820000000     0.961970000000    -0.390751   
O508     O      0.754610000000     0.781850000000     0.555710000000    -0.39462    
O509     O      0.757810000000     0.730570000000     0.555700000000    -0.394741   
O510     O      0.758150000000     0.730600000000     0.961960000000    -0.390788   
O511     O      0.803410000000     0.731520000000     0.509070000000    -0.398317   
O512     O      0.710170000000     0.729660000000     0.508610000000    -0.392791   


