data_structure

_audit_creation_method RASPA-1.0
_audit_creation_date 2023-5-19
_audit_author_name 'Poobodin Mano'

_cell_length_a    43.1937
_cell_length_b    43.3025
_cell_length_c    43.2334
_cell_angle_alpha 90
_cell_angle_beta  90
_cell_angle_gamma 90
_cell_volume      80863.5

_symmetry_cell_setting          triclinic
_symmetry_space_group_name_Hall 'P 1'
_symmetry_space_group_name_H-M  'P 1'
_symmetry_Int_Tables_number     1

_symmetry_equiv_pos_as_xyz 'x,y,z'

loop_
_atom_site_label
_atom_site_type_symbol
_atom_site_fract_x
_atom_site_fract_y
_atom_site_fract_z
_atom_site_charge
Br1      Br     0.337850000000     0.184700000000     0.467960000000    -0.217222   
Br2      Br     0.159210000000     0.195520000000     0.449540000000    -0.202689   
Br3      Br     0.197440000000     0.335570000000     0.039250000000    -0.221336   
Br4      Br     0.191030000000     0.156980000000     0.039070000000    -0.200963   
Br5      Br     0.204750000000     0.438880000000     0.408210000000    -0.214322   
Br6      Br     0.308990000000     0.035140000000     0.157070000000    -0.212332   
Br7      Br     0.437440000000     0.210480000000     0.407510000000    -0.211076   
Br8      Br     0.443900000000     0.281870000000     0.085310000000    -0.220556   
Br9      Br     0.087150000000     0.443280000000     0.200780000000    -0.214549   
Br10     Br     0.337050000000     0.026480000000     0.310910000000    -0.218888   
Br11     Br     0.440260000000     0.407560000000     0.211700000000    -0.220736   
Br12     Br     0.049790000000     0.086050000000     0.289810000000    -0.219293   
Br13     Br     0.337850000000     0.184700000000     0.967960000000    -0.217712   
Br14     Br     0.159210000000     0.195520000000     0.949540000000    -0.203153   
Br15     Br     0.197440000000     0.335570000000     0.539250000000    -0.221945   
Br16     Br     0.191030000000     0.156980000000     0.539070000000    -0.201844   
Br17     Br     0.204750000000     0.438880000000     0.908210000000    -0.214595   
Br18     Br     0.308990000000     0.035140000000     0.657070000000    -0.212566   
Br19     Br     0.437440000000     0.210480000000     0.907510000000    -0.211291   
Br20     Br     0.443900000000     0.281870000000     0.585310000000    -0.221111   
Br21     Br     0.087150000000     0.443280000000     0.700780000000    -0.214708   
Br22     Br     0.337050000000     0.026480000000     0.810910000000    -0.21894    
Br23     Br     0.440260000000     0.407560000000     0.711700000000    -0.220867   
Br24     Br     0.049790000000     0.086050000000     0.789810000000    -0.219367   
Br25     Br     0.337850000000     0.684700000000     0.467960000000    -0.217485   
Br26     Br     0.159210000000     0.695520000000     0.449540000000    -0.202953   
Br27     Br     0.197440000000     0.835570000000     0.039250000000    -0.221436   
Br28     Br     0.191030000000     0.656980000000     0.039070000000    -0.201381   
Br29     Br     0.204750000000     0.938890000000     0.408210000000    -0.214819   
Br30     Br     0.308990000000     0.535140000000     0.157070000000    -0.214092   
Br31     Br     0.437440000000     0.710480000000     0.407510000000    -0.211293   
Br32     Br     0.443900000000     0.781870000000     0.085310000000    -0.220699   
Br33     Br     0.087150000000     0.943280000000     0.200780000000    -0.214969   
Br34     Br     0.337050000000     0.526480000000     0.310910000000    -0.220475   
Br35     Br     0.440260000000     0.907560000000     0.211700000000    -0.221047   
Br36     Br     0.049790000000     0.586050000000     0.289810000000    -0.220492   
Br37     Br     0.337850000000     0.684700000000     0.967960000000    -0.217976   
Br38     Br     0.159210000000     0.695520000000     0.949540000000    -0.203419   
Br39     Br     0.197440000000     0.835570000000     0.539250000000    -0.222048   
Br40     Br     0.191030000000     0.656980000000     0.539070000000    -0.202268   
Br41     Br     0.204750000000     0.938890000000     0.908210000000    -0.215093   
Br42     Br     0.308990000000     0.535140000000     0.657070000000    -0.214333   
Br43     Br     0.437440000000     0.710480000000     0.907510000000    -0.211509   
Br44     Br     0.443900000000     0.781870000000     0.585310000000    -0.221256   
Br45     Br     0.087150000000     0.943280000000     0.700780000000    -0.21513    
Br46     Br     0.337050000000     0.526480000000     0.810910000000    -0.220529   
Br47     Br     0.440260000000     0.907560000000     0.711700000000    -0.22118    
Br48     Br     0.049790000000     0.586050000000     0.789810000000    -0.220568   
Br49     Br     0.837850000000     0.184700000000     0.467960000000    -0.217363   
Br50     Br     0.659210000000     0.195520000000     0.449540000000    -0.202932   
Br51     Br     0.697440000000     0.335570000000     0.039250000000    -0.221524   
Br52     Br     0.691030000000     0.156980000000     0.039070000000    -0.201157   
Br53     Br     0.704750000000     0.438880000000     0.408210000000    -0.21452    
Br54     Br     0.808990000000     0.035140000000     0.157070000000    -0.21246    
Br55     Br     0.937440000000     0.210480000000     0.407510000000    -0.211489   
Br56     Br     0.943900000000     0.281870000000     0.085310000000    -0.221029   
Br57     Br     0.587150000000     0.443280000000     0.200780000000    -0.21559    
Br58     Br     0.837050000000     0.026480000000     0.310910000000    -0.219116   
Br59     Br     0.940260000000     0.407560000000     0.211700000000    -0.221103   
Br60     Br     0.549790000000     0.086050000000     0.289810000000    -0.220004   
Br61     Br     0.837850000000     0.184700000000     0.967960000000    -0.217853   
Br62     Br     0.659210000000     0.195520000000     0.949540000000    -0.203397   
Br63     Br     0.697440000000     0.335570000000     0.539250000000    -0.222136   
Br64     Br     0.691030000000     0.156980000000     0.539070000000    -0.202041   
Br65     Br     0.704750000000     0.438880000000     0.908210000000    -0.214794   
Br66     Br     0.808990000000     0.035140000000     0.657070000000    -0.212695   
Br67     Br     0.937440000000     0.210480000000     0.907510000000    -0.211704   
Br68     Br     0.943900000000     0.281870000000     0.585310000000    -0.221585   
Br69     Br     0.587150000000     0.443280000000     0.700780000000    -0.215753   
Br70     Br     0.837050000000     0.026480000000     0.810910000000    -0.219168   
Br71     Br     0.940260000000     0.407560000000     0.711700000000    -0.221235   
Br72     Br     0.549790000000     0.086050000000     0.789810000000    -0.220078   
Br73     Br     0.837850000000     0.684700000000     0.467960000000    -0.217626   
Br74     Br     0.659210000000     0.695520000000     0.449540000000    -0.203197   
Br75     Br     0.697440000000     0.835570000000     0.039250000000    -0.221624   
Br76     Br     0.691030000000     0.656980000000     0.039070000000    -0.201575   
Br77     Br     0.704750000000     0.938890000000     0.408210000000    -0.215017   
Br78     Br     0.808990000000     0.535140000000     0.157070000000    -0.214219   
Br79     Br     0.937440000000     0.710480000000     0.407510000000    -0.211706   
Br80     Br     0.943900000000     0.781870000000     0.085310000000    -0.22117    
Br81     Br     0.587150000000     0.943280000000     0.200780000000    -0.216009   
Br82     Br     0.837050000000     0.526480000000     0.310910000000    -0.220702   
Br83     Br     0.940260000000     0.907560000000     0.211700000000    -0.221413   
Br84     Br     0.549790000000     0.586050000000     0.289810000000    -0.221206   
Br85     Br     0.837850000000     0.684700000000     0.967960000000    -0.218117   
Br86     Br     0.659210000000     0.695520000000     0.949540000000    -0.203664   
Br87     Br     0.697440000000     0.835570000000     0.539250000000    -0.222239   
Br88     Br     0.691030000000     0.656980000000     0.539070000000    -0.202466   
Br89     Br     0.704750000000     0.938890000000     0.908210000000    -0.215291   
Br90     Br     0.808990000000     0.535140000000     0.657070000000    -0.214461   
Br91     Br     0.937440000000     0.710480000000     0.907510000000    -0.211921   
Br92     Br     0.943900000000     0.781870000000     0.585310000000    -0.221729   
Br93     Br     0.587150000000     0.943280000000     0.700780000000    -0.216173   
Br94     Br     0.837050000000     0.526480000000     0.810910000000    -0.220756   
Br95     Br     0.940260000000     0.907560000000     0.711700000000    -0.221546   
Br96     Br     0.549790000000     0.586050000000     0.789810000000    -0.221283   
C1       C      0.498170000000     0.057810000000     0.245590000000     0.419114   
C2       C      0.998450000000     0.434940000000     0.246300000000     0.421354   
C3       C      0.436730000000     0.994790000000     0.249980000000     0.409529   
C4       C      0.059700000000     0.497290000000     0.241460000000     0.421965   
C5       C      0.497770000000     0.185010000000     0.246280000000     0.406814   
C6       C      0.498020000000     0.307880000000     0.246420000000     0.406586   
C7       C      0.495020000000     0.247230000000     0.307870000000     0.406811   
C8       C      0.500370000000     0.246050000000     0.184950000000     0.406566   
C9       C      0.309560000000     0.492850000000     0.252360000000     0.426149   
C10      C      0.186970000000     0.997880000000     0.241170000000     0.402053   
C11      C      0.253760000000     0.496040000000     0.185310000000     0.421095   
C12      C      0.243270000000     0.994970000000     0.308000000000     0.405394   
C13      C      0.244310000000     0.057360000000     0.996370000000     0.406574   
C14      C      0.249560000000     0.434540000000     0.496580000000     0.41107    
C15      C      0.251090000000     0.996220000000     0.058030000000     0.405774   
C16      C      0.242910000000     0.495040000000     0.435220000000     0.422159   
C17      C      0.000980000000     0.245770000000     0.057630000000     0.424161   
C18      C      0.493510000000     0.248580000000     0.435040000000     0.421619   
C19      C      0.059390000000     0.248410000000     0.992290000000     0.405819   
C20      C      0.436540000000     0.245420000000     0.500250000000     0.415169   
C21      C      0.244570000000     0.184520000000     0.996710000000     0.424734   
C22      C      0.250000000000     0.307350000000     0.996470000000     0.416889   
C23      C      0.186700000000     0.247930000000     0.992530000000     0.424296   
C24      C      0.309410000000     0.243110000000     0.000500000000     0.425658   
C25      C      0.388410000000     0.267490000000     0.015200000000     0.0372285  
C26      C      0.389630000000     0.219780000000     0.488770000000     0.00357688 
C27      C      0.356140000000     0.265650000000     0.016920000000     0.0459384  
C28      C      0.357330000000     0.219360000000     0.487820000000     0.164084   
C29      C      0.107140000000     0.270700000000     0.007160000000     0.0373234  
C30      C      0.106730000000     0.227310000000     0.474080000000     0.00212635 
C31      C      0.139360000000     0.269510000000     0.008190000000     0.0452454  
C32      C      0.139140000000     0.227720000000     0.472900000000     0.161224   
C33      C      0.271760000000     0.387040000000     0.479950000000     0.0365781  
C34      C      0.228890000000     0.387180000000     0.013800000000     0.00458824 
C35      C      0.270420000000     0.354740000000     0.478580000000     0.0425263  
C36      C      0.229200000000     0.354990000000     0.014700000000     0.160844   
C37      C      0.264070000000     0.105020000000     0.478680000000     0.0378466  
C38      C      0.221680000000     0.104540000000     0.013120000000     0.00558699 
C39      C      0.262990000000     0.137120000000     0.477810000000     0.0452778  
C40      C      0.222420000000     0.136930000000     0.014580000000     0.163679   
C41      C      0.256040000000     0.018170000000     0.355800000000     0.0380817  
C42      C      0.227160000000     0.471860000000     0.355360000000     0.00188228 
C43      C      0.256780000000     0.017460000000     0.387950000000     0.0492791  
C44      C      0.225570000000     0.472520000000     0.387790000000     0.158501   
C45      C      0.231010000000     0.480210000000     0.106230000000     0.033271   
C46      C      0.275850000000     0.011380000000     0.104860000000     0.00456786 
C47      C      0.232590000000     0.479300000000     0.138350000000     0.0427554  
C48      C      0.275920000000     0.012760000000     0.137320000000     0.160663   
C49      C      0.515290000000     0.264670000000     0.355670000000     0.0328565  
C50      C      0.470630000000     0.233210000000     0.355040000000     0.00110028 
C51      C      0.513710000000     0.266290000000     0.387840000000     0.042071   
C52      C      0.470560000000     0.232570000000     0.387430000000     0.159167   
C53      C      0.023790000000     0.230830000000     0.137390000000     0.0333365  
C54      C      0.478120000000     0.260800000000     0.137360000000    -0.000200852
C55      C      0.022630000000     0.229260000000     0.105040000000     0.0428264  
C56      C      0.478210000000     0.261320000000     0.105140000000     0.160209   
C57      C      0.139250000000     0.021560000000     0.254140000000     0.0386029  
C58      C      0.139650000000     0.476390000000     0.223540000000     0.00110484 
C59      C      0.107000000000     0.020210000000     0.255470000000     0.0443857  
C60      C      0.107240000000     0.476590000000     0.222490000000     0.157461   
C61      C      0.388740000000     0.478590000000     0.229050000000     0.0366893  
C62      C      0.389680000000     0.006140000000     0.276190000000     0.00482236 
C63      C      0.356580000000     0.476560000000     0.230810000000     0.0497122  
C64      C      0.357230000000     0.006650000000     0.276510000000     0.16444    
C65      C      0.021380000000     0.355460000000     0.260550000000     0.0363105  
C66      C      0.474250000000     0.355240000000     0.232860000000     0.000975563
C67      C      0.020430000000     0.387680000000     0.261850000000     0.048087   
C68      C      0.474680000000     0.387500000000     0.231690000000     0.161693   
C69      C      0.477340000000     0.137400000000     0.228230000000     0.0334465  
C70      C      0.019200000000     0.137740000000     0.263310000000     0.00263001 
C71      C      0.478790000000     0.105180000000     0.226870000000     0.0419842  
C72      C      0.018900000000     0.105490000000     0.264200000000     0.16116    
C73      C      0.498170000000     0.057810000000     0.745590000000     0.419118   
C74      C      0.998450000000     0.434940000000     0.746300000000     0.421356   
C75      C      0.436730000000     0.994790000000     0.749980000000     0.409535   
C76      C      0.059700000000     0.497290000000     0.741460000000     0.421972   
C77      C      0.497770000000     0.185010000000     0.746280000000     0.406808   
C78      C      0.498020000000     0.307880000000     0.746420000000     0.406581   
C79      C      0.495020000000     0.247230000000     0.807870000000     0.406808   
C80      C      0.500370000000     0.246050000000     0.684950000000     0.406546   
C81      C      0.309560000000     0.492850000000     0.752360000000     0.426151   
C82      C      0.186970000000     0.997880000000     0.741170000000     0.402038   
C83      C      0.253760000000     0.496040000000     0.685310000000     0.421085   
C84      C      0.243270000000     0.994970000000     0.808000000000     0.405387   
C85      C      0.244310000000     0.057360000000     0.496370000000     0.406857   
C86      C      0.249560000000     0.434540000000     0.996580000000     0.410818   
C87      C      0.251090000000     0.996220000000     0.558030000000     0.405985   
C88      C      0.242910000000     0.495040000000     0.935220000000     0.422182   
C89      C      0.000980000000     0.245770000000     0.557630000000     0.424435   
C90      C      0.493510000000     0.248580000000     0.935040000000     0.421489   
C91      C      0.059390000000     0.248410000000     0.492290000000     0.405976   
C92      C      0.436540000000     0.245420000000     0.000250000000     0.41978    
C93      C      0.244570000000     0.184520000000     0.496710000000     0.427111   
C94      C      0.250000000000     0.307350000000     0.496470000000     0.41934    
C95      C      0.186700000000     0.247930000000     0.492530000000     0.426684   
C96      C      0.309410000000     0.243110000000     0.500500000000     0.423098   
C97      C      0.388410000000     0.267490000000     0.515200000000     0.0366039  
C98      C      0.389630000000     0.219780000000     0.988770000000     0.00220341 
C99      C      0.356140000000     0.265650000000     0.516920000000     0.0455507  
C100     C      0.357330000000     0.219360000000     0.987820000000     0.162862   
C101     C      0.107140000000     0.270700000000     0.507160000000     0.0356546  
C102     C      0.106730000000     0.227310000000     0.974080000000     0.00184717 
C103     C      0.139360000000     0.269510000000     0.508190000000     0.0438206  
C104     C      0.139140000000     0.227720000000     0.972900000000     0.160902   
C105     C      0.271760000000     0.387040000000     0.979950000000     0.0363153  
C106     C      0.228890000000     0.387180000000     0.513800000000     0.00286335 
C107     C      0.270420000000     0.354740000000     0.978580000000     0.042111   
C108     C      0.229200000000     0.354990000000     0.514700000000     0.159649   
C109     C      0.264070000000     0.105020000000     0.978680000000     0.0376164  
C110     C      0.221680000000     0.104540000000     0.513120000000     0.00385178 
C111     C      0.262990000000     0.137120000000     0.977810000000     0.0449063  
C112     C      0.222420000000     0.136930000000     0.514580000000     0.162465   
C113     C      0.256040000000     0.018170000000     0.855800000000     0.0380784  
C114     C      0.227160000000     0.471860000000     0.855360000000     0.00186358 
C115     C      0.256780000000     0.017460000000     0.887950000000     0.0492347  
C116     C      0.225570000000     0.472520000000     0.887790000000     0.158492   
C117     C      0.231010000000     0.480210000000     0.606230000000     0.0331954  
C118     C      0.275850000000     0.011380000000     0.604860000000     0.00449629 
C119     C      0.232590000000     0.479300000000     0.638350000000     0.0426962  
C120     C      0.275920000000     0.012760000000     0.637320000000     0.160616   
C121     C      0.515290000000     0.264670000000     0.855670000000     0.0328385  
C122     C      0.470630000000     0.233210000000     0.855040000000     0.0010857  
C123     C      0.513710000000     0.266290000000     0.887840000000     0.0420393  
C124     C      0.470560000000     0.232570000000     0.887430000000     0.159141   
C125     C      0.023790000000     0.230830000000     0.637390000000     0.0332733  
C126     C      0.478120000000     0.260800000000     0.637350000000    -0.000315672
C127     C      0.022630000000     0.229260000000     0.605040000000     0.0427562  
C128     C      0.478210000000     0.261320000000     0.605140000000     0.160196   
C129     C      0.139250000000     0.021560000000     0.754140000000     0.0385928  
C130     C      0.139650000000     0.476390000000     0.723540000000     0.00108365 
C131     C      0.107000000000     0.020210000000     0.755470000000     0.0443748  
C132     C      0.107240000000     0.476590000000     0.722490000000     0.157446   
C133     C      0.388740000000     0.478590000000     0.729050000000     0.0366748  
C134     C      0.389680000000     0.006140000000     0.776190000000     0.0048187  
C135     C      0.356580000000     0.476560000000     0.730810000000     0.0497     
C136     C      0.357230000000     0.006650000000     0.776510000000     0.16444    
C137     C      0.021380000000     0.355460000000     0.760550000000     0.036334   
C138     C      0.474250000000     0.355240000000     0.732860000000     0.000962222
C139     C      0.020430000000     0.387680000000     0.761860000000     0.0480131  
C140     C      0.474680000000     0.387500000000     0.731690000000     0.161678   
C141     C      0.477340000000     0.137400000000     0.728230000000     0.0334266  
C142     C      0.019200000000     0.137740000000     0.763310000000     0.00262073 
C143     C      0.478790000000     0.105180000000     0.726870000000     0.0419595  
C144     C      0.018900000000     0.105490000000     0.764200000000     0.161156   
C145     C      0.498170000000     0.557810000000     0.245590000000     0.419676   
C146     C      0.998450000000     0.934940000000     0.246300000000     0.42118    
C147     C      0.436730000000     0.494790000000     0.249980000000     0.410018   
C148     C      0.059700000000     0.997280000000     0.241460000000     0.421501   
C149     C      0.497770000000     0.685010000000     0.246280000000     0.406783   
C150     C      0.498020000000     0.807880000000     0.246420000000     0.406578   
C151     C      0.495020000000     0.747230000000     0.307870000000     0.406766   
C152     C      0.500370000000     0.746050000000     0.184950000000     0.406556   
C153     C      0.309560000000     0.992850000000     0.252360000000     0.421544   
C154     C      0.186970000000     0.497880000000     0.241170000000     0.406463   
C155     C      0.253760000000     0.996040000000     0.185310000000     0.416596   
C156     C      0.243270000000     0.494970000000     0.308000000000     0.409913   
C157     C      0.244310000000     0.557360000000     0.996370000000     0.40698    
C158     C      0.249560000000     0.934530000000     0.496580000000     0.410739   
C159     C      0.251090000000     0.496220000000     0.058030000000     0.406266   
C160     C      0.242910000000     0.995040000000     0.435220000000     0.421698   
C161     C      0.000980000000     0.745760000000     0.057630000000     0.424154   
C162     C      0.493510000000     0.748580000000     0.435040000000     0.421626   
C163     C      0.059390000000     0.748410000000     0.992290000000     0.405826   
C164     C      0.436540000000     0.745420000000     0.500250000000     0.415177   
C165     C      0.244570000000     0.684520000000     0.996710000000     0.424692   
C166     C      0.250000000000     0.807350000000     0.996470000000     0.41685    
C167     C      0.186700000000     0.747930000000     0.992530000000     0.424301   
C168     C      0.309410000000     0.743110000000     0.000500000000     0.42569    
C169     C      0.388410000000     0.767490000000     0.015200000000     0.0371431  
C170     C      0.389630000000     0.719780000000     0.488770000000     0.00360234 
C171     C      0.356140000000     0.765650000000     0.016920000000     0.0459449  
C172     C      0.357330000000     0.719360000000     0.487820000000     0.164056   
C173     C      0.107140000000     0.770700000000     0.007160000000     0.0372877  
C174     C      0.106730000000     0.727310000000     0.474080000000     0.00208921 
C175     C      0.139360000000     0.769510000000     0.008190000000     0.0452453  
C176     C      0.139140000000     0.727720000000     0.472900000000     0.161223   
C177     C      0.271760000000     0.887040000000     0.479950000000     0.036538   
C178     C      0.228890000000     0.887180000000     0.013800000000     0.00455662 
C179     C      0.270420000000     0.854740000000     0.478580000000     0.042495   
C180     C      0.229200000000     0.854990000000     0.014700000000     0.160825   
C181     C      0.264070000000     0.605020000000     0.478680000000     0.0377162  
C182     C      0.221680000000     0.604540000000     0.013120000000     0.00544857 
C183     C      0.262990000000     0.637120000000     0.477810000000     0.0451732  
C184     C      0.222420000000     0.636930000000     0.014580000000     0.163591   
C185     C      0.256040000000     0.518170000000     0.355800000000     0.0355316  
C186     C      0.227160000000     0.971860000000     0.355360000000     0.00113915 
C187     C      0.256780000000     0.517460000000     0.387950000000     0.0462155  
C188     C      0.225570000000     0.972520000000     0.387790000000     0.158152   
C189     C      0.231010000000     0.980210000000     0.106230000000     0.0328388  
C190     C      0.275850000000     0.511380000000     0.104860000000     0.00134141 
C191     C      0.232590000000     0.979290000000     0.138350000000     0.0419716  
C192     C      0.275920000000     0.512760000000     0.137320000000     0.158429   
C193     C      0.515290000000     0.764670000000     0.355670000000     0.0328052  
C194     C      0.470630000000     0.733210000000     0.355040000000     0.00108573 
C195     C      0.513710000000     0.766290000000     0.387840000000     0.0420899  
C196     C      0.470560000000     0.732570000000     0.387430000000     0.159096   
C197     C      0.023790000000     0.730830000000     0.137390000000     0.03331    
C198     C      0.478120000000     0.760790000000     0.137360000000    -0.000156095
C199     C      0.022630000000     0.729260000000     0.105040000000     0.0427638  
C200     C      0.478210000000     0.761330000000     0.105140000000     0.16015    
C201     C      0.139250000000     0.521560000000     0.254140000000     0.0359887  
C202     C      0.139650000000     0.976400000000     0.223540000000     0.000482959
C203     C      0.107000000000     0.520210000000     0.255470000000     0.0412608  
C204     C      0.107240000000     0.976590000000     0.222490000000     0.157065   
C205     C      0.388740000000     0.978590000000     0.229050000000     0.0361579  
C206     C      0.389680000000     0.506140000000     0.276190000000     0.00161474 
C207     C      0.356580000000     0.976560000000     0.230810000000     0.0489146  
C208     C      0.357230000000     0.506650000000     0.276510000000     0.162203   
C209     C      0.021380000000     0.855460000000     0.260550000000     0.0362801  
C210     C      0.474250000000     0.855250000000     0.232860000000     0.00088601 
C211     C      0.020430000000     0.887680000000     0.261850000000     0.0480386  
C212     C      0.474680000000     0.887500000000     0.231690000000     0.161691   
C213     C      0.477340000000     0.637390000000     0.228230000000     0.0333009  
C214     C      0.019200000000     0.637740000000     0.263310000000     0.00252303 
C215     C      0.478790000000     0.605170000000     0.226870000000     0.0418623  
C216     C      0.018900000000     0.605490000000     0.264200000000     0.161098   
C217     C      0.498170000000     0.557810000000     0.745590000000     0.419682   
C218     C      0.998450000000     0.934940000000     0.746300000000     0.421182   
C219     C      0.436730000000     0.494790000000     0.749980000000     0.410026   
C220     C      0.059700000000     0.997280000000     0.741460000000     0.421508   
C221     C      0.497770000000     0.685010000000     0.746280000000     0.406778   
C222     C      0.498020000000     0.807880000000     0.746420000000     0.406573   
C223     C      0.495020000000     0.747230000000     0.807870000000     0.406764   
C224     C      0.500370000000     0.746050000000     0.684950000000     0.406536   
C225     C      0.309560000000     0.992850000000     0.752360000000     0.421537   
C226     C      0.186970000000     0.497880000000     0.741170000000     0.406457   
C227     C      0.253760000000     0.996040000000     0.685310000000     0.416576   
C228     C      0.243270000000     0.494970000000     0.808000000000     0.409912   
C229     C      0.244310000000     0.557360000000     0.496370000000     0.407263   
C230     C      0.249560000000     0.934530000000     0.996580000000     0.410487   
C231     C      0.251090000000     0.496220000000     0.558030000000     0.406477   
C232     C      0.242910000000     0.995040000000     0.935220000000     0.421723   
C233     C      0.000980000000     0.745760000000     0.557630000000     0.424429   
C234     C      0.493510000000     0.748580000000     0.935040000000     0.421495   
C235     C      0.059390000000     0.748410000000     0.492290000000     0.405984   
C236     C      0.436540000000     0.745420000000     0.000250000000     0.419804   
C237     C      0.244570000000     0.684520000000     0.496710000000     0.427078   
C238     C      0.250000000000     0.807350000000     0.496470000000     0.419306   
C239     C      0.186700000000     0.747930000000     0.492530000000     0.426697   
C240     C      0.309410000000     0.743110000000     0.500500000000     0.423119   
C241     C      0.388410000000     0.767490000000     0.515200000000     0.0365163  
C242     C      0.389630000000     0.719780000000     0.988770000000     0.00222373 
C243     C      0.356140000000     0.765650000000     0.516920000000     0.0455554  
C244     C      0.357330000000     0.719360000000     0.987820000000     0.16283    
C245     C      0.107140000000     0.770700000000     0.507160000000     0.0356122  
C246     C      0.106730000000     0.727310000000     0.974080000000     0.00180924 
C247     C      0.139360000000     0.769510000000     0.508190000000     0.0438149  
C248     C      0.139140000000     0.727720000000     0.972900000000     0.1609     
C249     C      0.271760000000     0.887040000000     0.979950000000     0.036275   
C250     C      0.228890000000     0.887180000000     0.513800000000     0.00282776 
C251     C      0.270420000000     0.854740000000     0.978580000000     0.042079   
C252     C      0.229200000000     0.854990000000     0.514700000000     0.159626   
C253     C      0.264070000000     0.605020000000     0.978680000000     0.0374852  
C254     C      0.221680000000     0.604540000000     0.513120000000     0.00370118 
C255     C      0.262990000000     0.637120000000     0.977810000000     0.0448001  
C256     C      0.222420000000     0.636930000000     0.514580000000     0.162371   
C257     C      0.256040000000     0.518170000000     0.855800000000     0.0355248  
C258     C      0.227160000000     0.971860000000     0.855360000000     0.0011202  
C259     C      0.256780000000     0.517460000000     0.887950000000     0.0461709  
C260     C      0.225570000000     0.972520000000     0.887790000000     0.158141   
C261     C      0.231010000000     0.980210000000     0.606230000000     0.0327619  
C262     C      0.275850000000     0.511380000000     0.604860000000     0.00125545 
C263     C      0.232590000000     0.979290000000     0.638350000000     0.0419101  
C264     C      0.275920000000     0.512760000000     0.637320000000     0.158376   
C265     C      0.515290000000     0.764670000000     0.855670000000     0.0327872  
C266     C      0.470630000000     0.733210000000     0.855040000000     0.00107111 
C267     C      0.513710000000     0.766290000000     0.887840000000     0.0420581  
C268     C      0.470560000000     0.732570000000     0.887430000000     0.15907    
C269     C      0.023790000000     0.730830000000     0.637390000000     0.0332464  
C270     C      0.478120000000     0.760790000000     0.637350000000    -0.000271224
C271     C      0.022630000000     0.729260000000     0.605040000000     0.0426932  
C272     C      0.478210000000     0.761330000000     0.605140000000     0.160138   
C273     C      0.139250000000     0.521560000000     0.754140000000     0.035973   
C274     C      0.139650000000     0.976400000000     0.723540000000     0.000460534
C275     C      0.107000000000     0.520210000000     0.755470000000     0.0412434  
C276     C      0.107240000000     0.976590000000     0.722490000000     0.15705    
C277     C      0.388740000000     0.978590000000     0.729050000000     0.0361424  
C278     C      0.389680000000     0.506140000000     0.776190000000     0.00160479 
C279     C      0.356580000000     0.976560000000     0.730810000000     0.048901   
C280     C      0.357230000000     0.506650000000     0.776510000000     0.162198   
C281     C      0.021380000000     0.855460000000     0.760550000000     0.0363036  
C282     C      0.474250000000     0.855250000000     0.732860000000     0.000872596
C283     C      0.020430000000     0.887680000000     0.761860000000     0.0479646  
C284     C      0.474680000000     0.887500000000     0.731690000000     0.161676   
C285     C      0.477340000000     0.637390000000     0.728230000000     0.0332806  
C286     C      0.019200000000     0.637740000000     0.763310000000     0.00251351 
C287     C      0.478790000000     0.605170000000     0.726870000000     0.0418372  
C288     C      0.018900000000     0.605490000000     0.764200000000     0.161094   
C289     C      0.998170000000     0.057810000000     0.245590000000     0.41546    
C290     C      0.498450000000     0.434940000000     0.246300000000     0.425014   
C291     C      0.936730000000     0.994790000000     0.249980000000     0.409646   
C292     C      0.559700000000     0.497290000000     0.241460000000     0.422034   
C293     C      0.997770000000     0.185010000000     0.246280000000     0.403231   
C294     C      0.998020000000     0.307880000000     0.246420000000     0.403003   
C295     C      0.995020000000     0.247230000000     0.307870000000     0.403266   
C296     C      0.000370000000     0.246050000000     0.184950000000     0.410329   
C297     C      0.809570000000     0.492850000000     0.252360000000     0.426077   
C298     C      0.686970000000     0.997880000000     0.241170000000     0.402039   
C299     C      0.753770000000     0.496040000000     0.185310000000     0.421084   
C300     C      0.743270000000     0.994970000000     0.308000000000     0.405397   
C301     C      0.744310000000     0.057360000000     0.996370000000     0.406574   
C302     C      0.749560000000     0.434540000000     0.496580000000     0.411085   
C303     C      0.751090000000     0.996220000000     0.058030000000     0.405773   
C304     C      0.742910000000     0.495040000000     0.435220000000     0.422169   
C305     C      0.500980000000     0.245770000000     0.057630000000     0.420842   
C306     C      0.993510000000     0.248580000000     0.435040000000     0.421191   
C307     C      0.559390000000     0.248410000000     0.992290000000     0.406302   
C308     C      0.936540000000     0.245420000000     0.500250000000     0.414904   
C309     C      0.744570000000     0.184520000000     0.996710000000     0.424733   
C310     C      0.750000000000     0.307350000000     0.996470000000     0.416883   
C311     C      0.686700000000     0.247930000000     0.992530000000     0.424281   
C312     C      0.809410000000     0.243110000000     0.000500000000     0.425665   
C313     C      0.888410000000     0.267490000000     0.015200000000     0.0371651  
C314     C      0.889630000000     0.219780000000     0.488770000000     0.00350883 
C315     C      0.856130000000     0.265650000000     0.016920000000     0.0459453  
C316     C      0.857330000000     0.219360000000     0.487820000000     0.164072   
C317     C      0.607140000000     0.270700000000     0.007160000000     0.0372695  
C318     C      0.606730000000     0.227310000000     0.474080000000     0.00205614 
C319     C      0.639360000000     0.269510000000     0.008190000000     0.0451665  
C320     C      0.639140000000     0.227720000000     0.472900000000     0.16116    
C321     C      0.771760000000     0.387040000000     0.479950000000     0.0366254  
C322     C      0.728890000000     0.387180000000     0.013800000000     0.00455101 
C323     C      0.770420000000     0.354740000000     0.478580000000     0.0424817  
C324     C      0.729200000000     0.354990000000     0.014700000000     0.160846   
C325     C      0.764070000000     0.105020000000     0.478680000000     0.0377429  
C326     C      0.721680000000     0.104540000000     0.013120000000     0.005637   
C327     C      0.762990000000     0.137120000000     0.477810000000     0.0453437  
C328     C      0.722420000000     0.136930000000     0.014580000000     0.163605   
C329     C      0.756040000000     0.018170000000     0.355800000000     0.0381082  
C330     C      0.727160000000     0.471860000000     0.355360000000     0.00182189 
C331     C      0.756780000000     0.017460000000     0.387950000000     0.049227   
C332     C      0.725570000000     0.472520000000     0.387790000000     0.158497   
C333     C      0.731010000000     0.480210000000     0.106230000000     0.0331769  
C334     C      0.775850000000     0.011380000000     0.104860000000     0.00461118 
C335     C      0.732590000000     0.479300000000     0.138350000000     0.0427736  
C336     C      0.775920000000     0.012760000000     0.137320000000     0.160623   
C337     C      0.015290000000     0.264670000000     0.355670000000     0.0349376  
C338     C      0.970630000000     0.233210000000     0.355040000000     0.000520523
C339     C      0.013710000000     0.266290000000     0.387840000000     0.044554   
C340     C      0.970560000000     0.232570000000     0.387430000000     0.158843   
C341     C      0.523790000000     0.230830000000     0.137390000000     0.0327192  
C342     C      0.978120000000     0.260800000000     0.137360000000    -0.0023583  
C343     C      0.522630000000     0.229260000000     0.105040000000     0.0422225  
C344     C      0.978210000000     0.261320000000     0.105140000000     0.15844    
C345     C      0.639250000000     0.021560000000     0.254140000000     0.0385587  
C346     C      0.639650000000     0.476390000000     0.223540000000     0.00102936 
C347     C      0.607000000000     0.020210000000     0.255470000000     0.0442799  
C348     C      0.607240000000     0.476590000000     0.222490000000     0.157456   
C349     C      0.888740000000     0.478590000000     0.229050000000     0.0366299  
C350     C      0.889680000000     0.006140000000     0.276190000000     0.00475482 
C351     C      0.856580000000     0.476560000000     0.230810000000     0.0496994  
C352     C      0.857230000000     0.006650000000     0.276510000000     0.164402   
C353     C      0.521380000000     0.355460000000     0.260550000000     0.0341845  
C354     C      0.974250000000     0.355240000000     0.232860000000     0.000433304
C355     C      0.520430000000     0.387680000000     0.261850000000     0.0459433  
C356     C      0.974680000000     0.387500000000     0.231690000000     0.161252   
C357     C      0.977340000000     0.137400000000     0.228230000000     0.032908   
C358     C      0.519200000000     0.137740000000     0.263310000000     0.00036711 
C359     C      0.978790000000     0.105180000000     0.226870000000     0.0414104  
C360     C      0.518900000000     0.105490000000     0.264200000000     0.159323   
C361     C      0.998170000000     0.057810000000     0.745590000000     0.41546    
C362     C      0.498450000000     0.434940000000     0.746300000000     0.425021   
C363     C      0.936730000000     0.994790000000     0.749980000000     0.409653   
C364     C      0.559700000000     0.497290000000     0.741460000000     0.422042   
C365     C      0.997770000000     0.185010000000     0.746280000000     0.40322    
C366     C      0.998020000000     0.307880000000     0.746420000000     0.402993   
C367     C      0.995020000000     0.247230000000     0.807870000000     0.403261   
C368     C      0.000370000000     0.246050000000     0.684950000000     0.410318   
C369     C      0.809570000000     0.492850000000     0.752360000000     0.426079   
C370     C      0.686970000000     0.997880000000     0.741170000000     0.402024   
C371     C      0.753770000000     0.496040000000     0.685310000000     0.421074   
C372     C      0.743270000000     0.994970000000     0.808000000000     0.405391   
C373     C      0.744310000000     0.057360000000     0.496370000000     0.406857   
C374     C      0.749560000000     0.434540000000     0.996580000000     0.410832   
C375     C      0.751090000000     0.996220000000     0.558030000000     0.405985   
C376     C      0.742910000000     0.495040000000     0.935220000000     0.422192   
C377     C      0.500980000000     0.245770000000     0.557630000000     0.4211     
C378     C      0.993510000000     0.248580000000     0.935040000000     0.421061   
C379     C      0.559390000000     0.248410000000     0.492290000000     0.406461   
C380     C      0.936540000000     0.245420000000     0.000250000000     0.419518   
C381     C      0.744570000000     0.184520000000     0.496710000000     0.427115   
C382     C      0.750000000000     0.307350000000     0.496470000000     0.419338   
C383     C      0.686700000000     0.247930000000     0.492530000000     0.426676   
C384     C      0.809410000000     0.243110000000     0.500500000000     0.423099   
C385     C      0.888410000000     0.267490000000     0.515200000000     0.0365394  
C386     C      0.889630000000     0.219780000000     0.988770000000     0.00213492 
C387     C      0.856130000000     0.265650000000     0.516920000000     0.0455569  
C388     C      0.857330000000     0.219360000000     0.987820000000     0.162848   
C389     C      0.607140000000     0.270700000000     0.507160000000     0.0355918  
C390     C      0.606730000000     0.227310000000     0.974080000000     0.00177621 
C391     C      0.639360000000     0.269510000000     0.508190000000     0.0437362  
C392     C      0.639140000000     0.227720000000     0.972900000000     0.160836   
C393     C      0.771760000000     0.387040000000     0.979950000000     0.0363624  
C394     C      0.728890000000     0.387180000000     0.513800000000     0.00282242 
C395     C      0.770420000000     0.354740000000     0.978580000000     0.0420658  
C396     C      0.729200000000     0.354990000000     0.514700000000     0.159647   
C397     C      0.764070000000     0.105020000000     0.978680000000     0.0375124  
C398     C      0.721680000000     0.104540000000     0.513120000000     0.00389623 
C399     C      0.762990000000     0.137120000000     0.977810000000     0.0449716  
C400     C      0.722420000000     0.136930000000     0.514580000000     0.162388   
C401     C      0.756040000000     0.018170000000     0.855800000000     0.0381049  
C402     C      0.727160000000     0.471860000000     0.855360000000     0.00180315 
C403     C      0.756780000000     0.017460000000     0.887950000000     0.0491825  
C404     C      0.725570000000     0.472520000000     0.887790000000     0.158488   
C405     C      0.731010000000     0.480210000000     0.606230000000     0.0331009  
C406     C      0.775850000000     0.011380000000     0.604860000000     0.00453945 
C407     C      0.732590000000     0.479300000000     0.638350000000     0.0427142  
C408     C      0.775920000000     0.012760000000     0.637320000000     0.160576   
C409     C      0.015290000000     0.264670000000     0.855670000000     0.0349213  
C410     C      0.970630000000     0.233210000000     0.855040000000     0.000505885
C411     C      0.013710000000     0.266290000000     0.887840000000     0.0445219  
C412     C      0.970560000000     0.232570000000     0.887430000000     0.158817   
C413     C      0.523790000000     0.230830000000     0.637390000000     0.0326538  
C414     C      0.978120000000     0.260800000000     0.637350000000    -0.00247721 
C415     C      0.522630000000     0.229260000000     0.605040000000     0.0421499  
C416     C      0.978210000000     0.261320000000     0.605140000000     0.158421   
C417     C      0.639250000000     0.021560000000     0.754140000000     0.0385485  
C418     C      0.639650000000     0.476390000000     0.723540000000     0.00100792 
C419     C      0.607000000000     0.020210000000     0.755470000000     0.0442688  
C420     C      0.607240000000     0.476590000000     0.722490000000     0.157441   
C421     C      0.888740000000     0.478590000000     0.729050000000     0.0366153  
C422     C      0.889680000000     0.006140000000     0.776190000000     0.00475112 
C423     C      0.856580000000     0.476560000000     0.730810000000     0.0496872  
C424     C      0.857230000000     0.006650000000     0.776510000000     0.164401   
C425     C      0.521380000000     0.355460000000     0.760550000000     0.0342041  
C426     C      0.974250000000     0.355240000000     0.732860000000     0.000419302
C427     C      0.520430000000     0.387680000000     0.761860000000     0.0458665  
C428     C      0.974680000000     0.387500000000     0.731690000000     0.161237   
C429     C      0.977340000000     0.137400000000     0.728230000000     0.0328873  
C430     C      0.519200000000     0.137740000000     0.763310000000     0.000354078
C431     C      0.978790000000     0.105180000000     0.726870000000     0.0413849  
C432     C      0.518900000000     0.105490000000     0.764200000000     0.159316   
C433     C      0.998170000000     0.557810000000     0.245590000000     0.416014   
C434     C      0.498450000000     0.934940000000     0.246300000000     0.42483    
C435     C      0.936730000000     0.494790000000     0.249980000000     0.410135   
C436     C      0.559700000000     0.997280000000     0.241460000000     0.421569   
C437     C      0.997770000000     0.685010000000     0.246280000000     0.403201   
C438     C      0.998020000000     0.807880000000     0.246420000000     0.402999   
C439     C      0.995020000000     0.747230000000     0.307870000000     0.403224   
C440     C      0.000370000000     0.746050000000     0.184950000000     0.41032    
C441     C      0.809570000000     0.992850000000     0.252360000000     0.421478   
C442     C      0.686970000000     0.497880000000     0.241170000000     0.40645    
C443     C      0.753770000000     0.996040000000     0.185310000000     0.416587   
C444     C      0.743270000000     0.494970000000     0.308000000000     0.409915   
C445     C      0.744310000000     0.557360000000     0.996370000000     0.40698    
C446     C      0.749560000000     0.934530000000     0.496580000000     0.410754   
C447     C      0.751090000000     0.496220000000     0.058030000000     0.406264   
C448     C      0.742910000000     0.995040000000     0.435220000000     0.421709   
C449     C      0.500980000000     0.745760000000     0.057630000000     0.420839   
C450     C      0.993510000000     0.748580000000     0.435040000000     0.421198   
C451     C      0.559390000000     0.748410000000     0.992290000000     0.406309   
C452     C      0.936540000000     0.745420000000     0.500250000000     0.414912   
C453     C      0.744570000000     0.684520000000     0.996710000000     0.424691   
C454     C      0.750000000000     0.807350000000     0.996470000000     0.416843   
C455     C      0.686700000000     0.747930000000     0.992530000000     0.424287   
C456     C      0.809410000000     0.743110000000     0.000500000000     0.425696   
C457     C      0.888410000000     0.767490000000     0.015200000000     0.0370799  
C458     C      0.889630000000     0.719780000000     0.488770000000     0.00353434 
C459     C      0.856130000000     0.765650000000     0.016920000000     0.0459518  
C460     C      0.857330000000     0.719360000000     0.487820000000     0.164044   
C461     C      0.607140000000     0.770700000000     0.007160000000     0.0372338  
C462     C      0.606730000000     0.727310000000     0.474080000000     0.00201891 
C463     C      0.639360000000     0.769510000000     0.008190000000     0.0451663  
C464     C      0.639140000000     0.727720000000     0.472900000000     0.161159   
C465     C      0.771760000000     0.887040000000     0.479950000000     0.0365855  
C466     C      0.728890000000     0.887180000000     0.013800000000     0.00451938 
C467     C      0.770420000000     0.854740000000     0.478580000000     0.0424505  
C468     C      0.729200000000     0.854990000000     0.014700000000     0.160827   
C469     C      0.764070000000     0.605020000000     0.478680000000     0.0376123  
C470     C      0.721680000000     0.604540000000     0.013120000000     0.00549856 
C471     C      0.762990000000     0.637120000000     0.477810000000     0.0452392  
C472     C      0.722420000000     0.636930000000     0.014580000000     0.163517   
C473     C      0.756040000000     0.518170000000     0.355800000000     0.0355574  
C474     C      0.727160000000     0.971860000000     0.355360000000     0.00107899 
C475     C      0.756780000000     0.517460000000     0.387950000000     0.0461632  
C476     C      0.725570000000     0.972520000000     0.387790000000     0.158148   
C477     C      0.731010000000     0.980210000000     0.106230000000     0.0327449  
C478     C      0.775850000000     0.511380000000     0.104860000000     0.00138395 
C479     C      0.732590000000     0.979290000000     0.138350000000     0.0419901  
C480     C      0.775920000000     0.512760000000     0.137320000000     0.15839    
C481     C      0.015290000000     0.764670000000     0.355670000000     0.0348861  
C482     C      0.970630000000     0.733210000000     0.355040000000     0.000506414
C483     C      0.013710000000     0.766290000000     0.387840000000     0.0445737  
C484     C      0.970560000000     0.732570000000     0.387430000000     0.158772   
C485     C      0.523790000000     0.730830000000     0.137390000000     0.0326923  
C486     C      0.978120000000     0.760790000000     0.137360000000    -0.00231368 
C487     C      0.522630000000     0.729260000000     0.105040000000     0.0421595  
C488     C      0.978210000000     0.761330000000     0.105140000000     0.158383   
C489     C      0.639250000000     0.521560000000     0.254140000000     0.0359423  
C490     C      0.639650000000     0.976400000000     0.223540000000     0.000407012
C491     C      0.607000000000     0.520210000000     0.255470000000     0.0411487  
C492     C      0.607240000000     0.976590000000     0.222490000000     0.15706    
C493     C      0.888740000000     0.978590000000     0.229050000000     0.0360996  
C494     C      0.889680000000     0.506140000000     0.276190000000     0.00155346 
C495     C      0.856580000000     0.976560000000     0.230810000000     0.048903   
C496     C      0.857230000000     0.506650000000     0.276510000000     0.162166   
C497     C      0.521380000000     0.855460000000     0.260550000000     0.0341556  
C498     C      0.974250000000     0.855250000000     0.232860000000     0.000344515
C499     C      0.520430000000     0.887680000000     0.261850000000     0.0458985  
C500     C      0.974680000000     0.887500000000     0.231690000000     0.161251   
C501     C      0.977340000000     0.637390000000     0.228230000000     0.0327621  
C502     C      0.519200000000     0.637740000000     0.263310000000     0.00025766 
C503     C      0.978790000000     0.605170000000     0.226870000000     0.0412882  
C504     C      0.518900000000     0.605490000000     0.264200000000     0.159258   
C505     C      0.998170000000     0.557810000000     0.745590000000     0.416015   
C506     C      0.498450000000     0.934940000000     0.746300000000     0.424837   
C507     C      0.936730000000     0.494790000000     0.749980000000     0.410142   
C508     C      0.559700000000     0.997280000000     0.741460000000     0.421576   
C509     C      0.997770000000     0.685010000000     0.746280000000     0.40319    
C510     C      0.998020000000     0.807880000000     0.746420000000     0.402989   
C511     C      0.995020000000     0.747230000000     0.807870000000     0.403219   
C512     C      0.000370000000     0.746050000000     0.684950000000     0.410309   
C513     C      0.809570000000     0.992850000000     0.752360000000     0.421471   
C514     C      0.686970000000     0.497880000000     0.741170000000     0.406444   
C515     C      0.753770000000     0.996040000000     0.685310000000     0.416566   
C516     C      0.743270000000     0.494970000000     0.808000000000     0.409914   
C517     C      0.744310000000     0.557360000000     0.496370000000     0.407263   
C518     C      0.749560000000     0.934530000000     0.996580000000     0.410501   
C519     C      0.751090000000     0.496220000000     0.558030000000     0.406476   
C520     C      0.742910000000     0.995040000000     0.935220000000     0.421733   
C521     C      0.500980000000     0.745760000000     0.557630000000     0.421098   
C522     C      0.993510000000     0.748580000000     0.935040000000     0.421068   
C523     C      0.559390000000     0.748410000000     0.492290000000     0.406468   
C524     C      0.936540000000     0.745420000000     0.000250000000     0.419542   
C525     C      0.744570000000     0.684520000000     0.496710000000     0.427082   
C526     C      0.750000000000     0.807350000000     0.496470000000     0.419304   
C527     C      0.686700000000     0.747930000000     0.492530000000     0.42669    
C528     C      0.809410000000     0.743110000000     0.500500000000     0.42312    
C529     C      0.888410000000     0.767490000000     0.515200000000     0.0364518  
C530     C      0.889630000000     0.719780000000     0.988770000000     0.0021553  
C531     C      0.856130000000     0.765650000000     0.516920000000     0.0455617  
C532     C      0.857330000000     0.719360000000     0.987820000000     0.162816   
C533     C      0.607140000000     0.770700000000     0.507160000000     0.0355494  
C534     C      0.606730000000     0.727310000000     0.974080000000     0.00173819 
C535     C      0.639360000000     0.769510000000     0.508190000000     0.0437305  
C536     C      0.639140000000     0.727720000000     0.972900000000     0.160835   
C537     C      0.771760000000     0.887040000000     0.979950000000     0.0363222  
C538     C      0.728890000000     0.887180000000     0.513800000000     0.00278685 
C539     C      0.770420000000     0.854740000000     0.978580000000     0.0420339  
C540     C      0.729200000000     0.854990000000     0.514700000000     0.159624   
C541     C      0.764070000000     0.605020000000     0.978680000000     0.0373811  
C542     C      0.721680000000     0.604540000000     0.513120000000     0.00374561 
C543     C      0.762990000000     0.637120000000     0.977810000000     0.0448654  
C544     C      0.722420000000     0.636930000000     0.514580000000     0.162294   
C545     C      0.756040000000     0.518170000000     0.855800000000     0.0355506  
C546     C      0.727160000000     0.971860000000     0.855360000000     0.00106001 
C547     C      0.756780000000     0.517460000000     0.887950000000     0.0461185  
C548     C      0.725570000000     0.972520000000     0.887790000000     0.158137   
C549     C      0.731010000000     0.980210000000     0.606230000000     0.0326676  
C550     C      0.775850000000     0.511380000000     0.604860000000     0.00129782 
C551     C      0.732590000000     0.979290000000     0.638350000000     0.0419284  
C552     C      0.775920000000     0.512760000000     0.637320000000     0.158336   
C553     C      0.015290000000     0.764670000000     0.855670000000     0.0348699  
C554     C      0.970630000000     0.733210000000     0.855040000000     0.000491743
C555     C      0.013710000000     0.766290000000     0.887840000000     0.0445416  
C556     C      0.970560000000     0.732570000000     0.887430000000     0.158747   
C557     C      0.523790000000     0.730830000000     0.637390000000     0.0326265  
C558     C      0.978120000000     0.760790000000     0.637350000000    -0.0024329  
C559     C      0.522630000000     0.729260000000     0.605040000000     0.0420865  
C560     C      0.978210000000     0.761330000000     0.605140000000     0.158364   
C561     C      0.639250000000     0.521560000000     0.754140000000     0.0359265  
C562     C      0.639650000000     0.976400000000     0.723540000000     0.000384336
C563     C      0.607000000000     0.520210000000     0.755470000000     0.0411311  
C564     C      0.607240000000     0.976590000000     0.722490000000     0.157045   
C565     C      0.888740000000     0.978590000000     0.729050000000     0.0360841  
C566     C      0.889680000000     0.506140000000     0.776190000000     0.00154348 
C567     C      0.856580000000     0.976560000000     0.730810000000     0.0488894  
C568     C      0.857230000000     0.506650000000     0.776510000000     0.162161   
C569     C      0.521380000000     0.855460000000     0.760550000000     0.0341752  
C570     C      0.974250000000     0.855250000000     0.732860000000     0.000330442
C571     C      0.520430000000     0.887680000000     0.761860000000     0.0458216  
C572     C      0.974680000000     0.887500000000     0.731690000000     0.161235   
C573     C      0.977340000000     0.637390000000     0.728230000000     0.032741   
C574     C      0.519200000000     0.637740000000     0.763310000000     0.000244384
C575     C      0.978790000000     0.605170000000     0.726870000000     0.0412623  
C576     C      0.518900000000     0.605490000000     0.764200000000     0.159251   
Cu1      Cu     0.495900000000     0.495760000000     0.217320000000     0.874836   
Cu2      Cu     0.000620000000     0.996930000000     0.274340000000     0.871893   
Cu3      Cu     0.026370000000     0.246460000000     0.247990000000     0.859257   
Cu4      Cu     0.469340000000     0.246380000000     0.244840000000     0.866587   
Cu5      Cu     0.246770000000     0.466930000000     0.245830000000     0.864315   
Cu6      Cu     0.249910000000     0.023970000000     0.247390000000     0.875575   
Cu7      Cu     0.218500000000     0.494400000000     0.998840000000     0.871115   
Cu8      Cu     0.275510000000     0.997480000000     0.494250000000     0.857567   
Cu9      Cu     0.998640000000     0.218570000000     0.495240000000     0.864763   
Cu10     Cu     0.497320000000     0.275530000000     0.997350000000     0.867765   
Cu11     Cu     0.245850000000     0.246480000000     0.025090000000     0.880779   
Cu12     Cu     0.250300000000     0.245340000000     0.468030000000     0.87421    
Cu13     Cu     0.495900000000     0.495760000000     0.717320000000     0.874699   
Cu14     Cu     0.000620000000     0.996930000000     0.774340000000     0.871872   
Cu15     Cu     0.026370000000     0.246460000000     0.747990000000     0.859255   
Cu16     Cu     0.469340000000     0.246380000000     0.744840000000     0.866577   
Cu17     Cu     0.246770000000     0.466930000000     0.745830000000     0.864308   
Cu18     Cu     0.249910000000     0.023970000000     0.747390000000     0.875576   
Cu19     Cu     0.218500000000     0.494400000000     0.498840000000     0.872913   
Cu20     Cu     0.275510000000     0.997480000000     0.994250000000     0.855966   
Cu21     Cu     0.998640000000     0.218570000000     0.995240000000     0.86345    
Cu22     Cu     0.497320000000     0.275530000000     0.497350000000     0.869327   
Cu23     Cu     0.245850000000     0.246480000000     0.525090000000     0.879331   
Cu24     Cu     0.250300000000     0.245340000000     0.968030000000     0.872361   
Cu25     Cu     0.495900000000     0.995760000000     0.217320000000     0.871726   
Cu26     Cu     0.000620000000     0.496930000000     0.274340000000     0.875301   
Cu27     Cu     0.026370000000     0.746460000000     0.247990000000     0.859244   
Cu28     Cu     0.469340000000     0.746380000000     0.244840000000     0.866557   
Cu29     Cu     0.246770000000     0.966930000000     0.245830000000     0.860317   
Cu30     Cu     0.249910000000     0.523970000000     0.247390000000     0.873322   
Cu31     Cu     0.218500000000     0.994400000000     0.998840000000     0.868163   
Cu32     Cu     0.275510000000     0.497480000000     0.494250000000     0.860996   
Cu33     Cu     0.998640000000     0.718570000000     0.495240000000     0.864549   
Cu34     Cu     0.497320000000     0.775530000000     0.997350000000     0.867668   
Cu35     Cu     0.245850000000     0.746490000000     0.025090000000     0.88092    
Cu36     Cu     0.250300000000     0.745340000000     0.468030000000     0.874193   
Cu37     Cu     0.495900000000     0.995760000000     0.717320000000     0.871581   
Cu38     Cu     0.000620000000     0.496930000000     0.774340000000     0.875284   
Cu39     Cu     0.026370000000     0.746460000000     0.747990000000     0.859242   
Cu40     Cu     0.469340000000     0.746380000000     0.744840000000     0.866546   
Cu41     Cu     0.246770000000     0.966930000000     0.745830000000     0.860303   
Cu42     Cu     0.249910000000     0.523970000000     0.747390000000     0.873318   
Cu43     Cu     0.218500000000     0.994400000000     0.498840000000     0.869959   
Cu44     Cu     0.275510000000     0.497480000000     0.994250000000     0.859393   
Cu45     Cu     0.998640000000     0.718570000000     0.995240000000     0.863232   
Cu46     Cu     0.497320000000     0.775530000000     0.497350000000     0.869233   
Cu47     Cu     0.245850000000     0.746490000000     0.525090000000     0.879466   
Cu48     Cu     0.250300000000     0.745340000000     0.968030000000     0.872337   
Cu49     Cu     0.995900000000     0.495760000000     0.217320000000     0.869015   
Cu50     Cu     0.500620000000     0.996930000000     0.274340000000     0.866635   
Cu51     Cu     0.526370000000     0.246460000000     0.247990000000     0.85693    
Cu52     Cu     0.969330000000     0.246380000000     0.244840000000     0.863818   
Cu53     Cu     0.746770000000     0.466930000000     0.245830000000     0.864303   
Cu54     Cu     0.749910000000     0.023970000000     0.247390000000     0.87557    
Cu55     Cu     0.718500000000     0.494400000000     0.998840000000     0.870947   
Cu56     Cu     0.775510000000     0.997480000000     0.494250000000     0.857489   
Cu57     Cu     0.498640000000     0.218570000000     0.495240000000     0.869379   
Cu58     Cu     0.997320000000     0.275530000000     0.997350000000     0.865587   
Cu59     Cu     0.745850000000     0.246480000000     0.025090000000     0.880778   
Cu60     Cu     0.750300000000     0.245340000000     0.468030000000     0.874209   
Cu61     Cu     0.995900000000     0.495760000000     0.717320000000     0.868868   
Cu62     Cu     0.500620000000     0.996930000000     0.774340000000     0.866605   
Cu63     Cu     0.526370000000     0.246460000000     0.747990000000     0.856924   
Cu64     Cu     0.969330000000     0.246380000000     0.744840000000     0.863803   
Cu65     Cu     0.746770000000     0.466930000000     0.745830000000     0.864296   
Cu66     Cu     0.749910000000     0.023970000000     0.747390000000     0.875571   
Cu67     Cu     0.718500000000     0.494400000000     0.498840000000     0.872748   
Cu68     Cu     0.775510000000     0.997480000000     0.994250000000     0.855887   
Cu69     Cu     0.498640000000     0.218570000000     0.995240000000     0.868051   
Cu70     Cu     0.997320000000     0.275530000000     0.497350000000     0.867145   
Cu71     Cu     0.745850000000     0.246480000000     0.525090000000     0.879326   
Cu72     Cu     0.750300000000     0.245340000000     0.968030000000     0.872356   
Cu73     Cu     0.995900000000     0.995760000000     0.217320000000     0.865935   
Cu74     Cu     0.500620000000     0.496930000000     0.274340000000     0.870037   
Cu75     Cu     0.526370000000     0.746460000000     0.247990000000     0.856917   
Cu76     Cu     0.969330000000     0.746380000000     0.244840000000     0.863788   
Cu77     Cu     0.746770000000     0.966930000000     0.245830000000     0.860306   
Cu78     Cu     0.749910000000     0.523970000000     0.247390000000     0.873316   
Cu79     Cu     0.718500000000     0.994400000000     0.998840000000     0.867995   
Cu80     Cu     0.775510000000     0.497480000000     0.494250000000     0.860913   
Cu81     Cu     0.498640000000     0.718570000000     0.495240000000     0.869163   
Cu82     Cu     0.997320000000     0.775530000000     0.997350000000     0.865494   
Cu83     Cu     0.745850000000     0.746490000000     0.025090000000     0.880919   
Cu84     Cu     0.750300000000     0.745340000000     0.468030000000     0.874192   
Cu85     Cu     0.995900000000     0.995760000000     0.717320000000     0.865781   
Cu86     Cu     0.500620000000     0.496930000000     0.774340000000     0.870011   
Cu87     Cu     0.526370000000     0.746460000000     0.747990000000     0.85691    
Cu88     Cu     0.969330000000     0.746380000000     0.744840000000     0.863773   
Cu89     Cu     0.746770000000     0.966930000000     0.745830000000     0.860292   
Cu90     Cu     0.749910000000     0.523970000000     0.747390000000     0.873312   
Cu91     Cu     0.718500000000     0.994400000000     0.498840000000     0.869793   
Cu92     Cu     0.775510000000     0.497480000000     0.994250000000     0.859309   
Cu93     Cu     0.498640000000     0.718570000000     0.995240000000     0.867831   
Cu94     Cu     0.997320000000     0.775530000000     0.497350000000     0.867055   
Cu95     Cu     0.745850000000     0.746490000000     0.525090000000     0.879462   
Cu96     Cu     0.750300000000     0.745340000000     0.968030000000     0.872332   
H1       H      0.343550000000     0.284160000000     0.028250000000     0.0413605  
H2       H      0.399900000000     0.287110000000     0.025750000000     0.0581097  
H3       H      0.402200000000     0.201090000000     0.477730000000     0.0805325  
H4       H      0.151430000000     0.286130000000     0.022520000000     0.0578303  
H5       H      0.095400000000     0.287990000000     0.021020000000     0.0491476  
H6       H      0.094380000000     0.209900000000     0.460890000000     0.0704123  
H7       H      0.287040000000     0.342650000000     0.464180000000     0.0419234  
H8       H      0.288900000000     0.399000000000     0.466070000000     0.0469109  
H9       H      0.211800000000     0.399350000000     0.027580000000     0.0691408  
H10      H      0.279220000000     0.149040000000     0.462890000000     0.0603338  
H11      H      0.280970000000     0.093290000000     0.464290000000     0.0486216  
H12      H      0.204710000000     0.092160000000     0.026850000000     0.0698421  
H13      H      0.269220000000     0.035600000000     0.400040000000     0.0428336  
H14      H      0.268260000000     0.036710000000     0.344140000000     0.058732   
H15      H      0.215730000000     0.453260000000     0.343030000000     0.0683264  
H16      H      0.215200000000     0.466080000000     0.150740000000     0.0418141  
H17      H      0.212750000000     0.467260000000     0.094890000000     0.0470447  
H18      H      0.293480000000     0.023920000000     0.092130000000     0.0693003  
H19      H      0.531080000000     0.279710000000     0.400020000000     0.0407347  
H20      H      0.533450000000     0.277450000000     0.343980000000     0.0444733  
H21      H      0.453010000000     0.220320000000     0.342660000000     0.070188   
H22      H      0.040500000000     0.216470000000     0.092920000000     0.0422828  
H23      H      0.042100000000     0.218600000000     0.149410000000     0.0460492  
H24      H      0.459810000000     0.273060000000     0.149390000000     0.0708755  
H25      H      0.094880000000     0.037510000000     0.268910000000     0.0571809  
H26      H      0.151030000000     0.039590000000     0.266990000000     0.0482923  
H27      H      0.152010000000     0.458320000000     0.211290000000     0.0666747  
H28      H      0.344260000000     0.464680000000     0.212440000000     0.0468494  
H29      H      0.400240000000     0.467740000000     0.209600000000     0.0618043  
H30      H      0.402170000000     0.017670000000     0.294650000000     0.0702536  
H31      H      0.038920000000     0.399800000000     0.273750000000     0.044134   
H32      H      0.040290000000     0.343580000000     0.272000000000     0.0448889  
H33      H      0.455410000000     0.343050000000     0.221610000000     0.0694693  
H34      H      0.462570000000     0.093100000000     0.212000000000     0.0439668  
H35      H      0.460490000000     0.149240000000     0.213900000000     0.0463297  
H36      H      0.035790000000     0.150000000000     0.277610000000     0.0696952  
H37      H      0.343550000000     0.284160000000     0.528250000000     0.0411319  
H38      H      0.399900000000     0.287110000000     0.525750000000     0.0578225  
H39      H      0.402200000000     0.201090000000     0.977730000000     0.0805794  
H40      H      0.151430000000     0.286130000000     0.522520000000     0.0578103  
H41      H      0.095400000000     0.287990000000     0.521020000000     0.0489759  
H42      H      0.094380000000     0.209900000000     0.960890000000     0.0703305  
H43      H      0.287040000000     0.342650000000     0.964180000000     0.0418125  
H44      H      0.288900000000     0.399000000000     0.966070000000     0.0468008  
H45      H      0.211800000000     0.399350000000     0.527580000000     0.0690183  
H46      H      0.279220000000     0.149040000000     0.962890000000     0.0603379  
H47      H      0.280970000000     0.093290000000     0.964290000000     0.0485539  
H48      H      0.204710000000     0.092160000000     0.526850000000     0.0696971  
H49      H      0.269220000000     0.035600000000     0.900040000000     0.0428115  
H50      H      0.268260000000     0.036710000000     0.844140000000     0.0587202  
H51      H      0.215730000000     0.453260000000     0.843030000000     0.0683125  
H52      H      0.215200000000     0.466080000000     0.650740000000     0.0417656  
H53      H      0.212750000000     0.467260000000     0.594890000000     0.0468587  
H54      H      0.293480000000     0.023920000000     0.592130000000     0.0690607  
H55      H      0.531080000000     0.279710000000     0.900020000000     0.0406657  
H56      H      0.533450000000     0.277450000000     0.843980000000     0.0444468  
H57      H      0.453010000000     0.220320000000     0.842660000000     0.0701796  
H58      H      0.040500000000     0.216470000000     0.592920000000     0.0420628  
H59      H      0.042100000000     0.218600000000     0.649410000000     0.045993   
H60      H      0.459810000000     0.273060000000     0.649390000000     0.0708668  
H61      H      0.094880000000     0.037510000000     0.768910000000     0.0571651  
H62      H      0.151030000000     0.039590000000     0.766990000000     0.0482782  
H63      H      0.152010000000     0.458320000000     0.711290000000     0.0666482  
H64      H      0.344260000000     0.464680000000     0.712440000000     0.046812   
H65      H      0.400240000000     0.467740000000     0.709600000000     0.0617521  
H66      H      0.402170000000     0.017670000000     0.794650000000     0.0702273  
H67      H      0.038920000000     0.399800000000     0.773750000000     0.044128   
H68      H      0.040290000000     0.343580000000     0.772000000000     0.0448633  
H69      H      0.455410000000     0.343050000000     0.721610000000     0.0694457  
H70      H      0.462570000000     0.093100000000     0.712000000000     0.043908   
H71      H      0.460490000000     0.149240000000     0.713900000000     0.0462839  
H72      H      0.035790000000     0.150000000000     0.777610000000     0.0696849  
H73      H      0.343550000000     0.784160000000     0.028250000000     0.0413083  
H74      H      0.399900000000     0.787110000000     0.025750000000     0.0580725  
H75      H      0.402200000000     0.701090000000     0.477730000000     0.0804221  
H76      H      0.151430000000     0.786130000000     0.022520000000     0.0578101  
H77      H      0.095400000000     0.787980000000     0.021020000000     0.0491067  
H78      H      0.094380000000     0.709900000000     0.460890000000     0.0703172  
H79      H      0.287040000000     0.842640000000     0.464180000000     0.0418751  
H80      H      0.288900000000     0.898990000000     0.466070000000     0.046749   
H81      H      0.211800000000     0.899350000000     0.027580000000     0.0690548  
H82      H      0.279220000000     0.649040000000     0.462890000000     0.0602647  
H83      H      0.280970000000     0.593290000000     0.464290000000     0.0482824  
H84      H      0.204710000000     0.592160000000     0.026850000000     0.0694027  
H85      H      0.269220000000     0.535600000000     0.400040000000     0.0426782  
H86      H      0.268260000000     0.536710000000     0.344140000000     0.058871   
H87      H      0.215730000000     0.953260000000     0.343030000000     0.06831    
H88      H      0.215200000000     0.966080000000     0.150740000000     0.0417639  
H89      H      0.212750000000     0.967260000000     0.094890000000     0.0468707  
H90      H      0.293480000000     0.523920000000     0.092130000000     0.0690273  
H91      H      0.531080000000     0.779710000000     0.400020000000     0.0406768  
H92      H      0.533450000000     0.777450000000     0.343980000000     0.0444485  
H93      H      0.453010000000     0.720320000000     0.342660000000     0.0701458  
H94      H      0.040500000000     0.716470000000     0.092920000000     0.0421892  
H95      H      0.042100000000     0.718600000000     0.149410000000     0.0459708  
H96      H      0.459810000000     0.773060000000     0.149390000000     0.0708297  
H97      H      0.094880000000     0.537510000000     0.268910000000     0.0570553  
H98      H      0.151030000000     0.539590000000     0.266990000000     0.0482501  
H99      H      0.152010000000     0.958330000000     0.211290000000     0.0666765  
H100     H      0.344260000000     0.964680000000     0.212440000000     0.0466194  
H101     H      0.400240000000     0.967740000000     0.209600000000     0.0615733  
H102     H      0.402170000000     0.517670000000     0.294650000000     0.0699687  
H103     H      0.038920000000     0.899800000000     0.273750000000     0.0440413  
H104     H      0.040290000000     0.843580000000     0.272000000000     0.0448553  
H105     H      0.455410000000     0.843050000000     0.221610000000     0.0694636  
H106     H      0.462570000000     0.593100000000     0.212000000000     0.0435368  
H107     H      0.460490000000     0.649240000000     0.213900000000     0.0462311  
H108     H      0.035790000000     0.650000000000     0.277610000000     0.0696456  
H109     H      0.343550000000     0.784160000000     0.528250000000     0.041079   
H110     H      0.399900000000     0.787110000000     0.525750000000     0.0577842  
H111     H      0.402200000000     0.701090000000     0.977730000000     0.0804694  
H112     H      0.151430000000     0.786130000000     0.522520000000     0.05779    
H113     H      0.095400000000     0.787980000000     0.521020000000     0.0489347  
H114     H      0.094380000000     0.709900000000     0.960890000000     0.0702351  
H115     H      0.287040000000     0.842640000000     0.964180000000     0.041764   
H116     H      0.288900000000     0.898990000000     0.966070000000     0.0466389  
H117     H      0.211800000000     0.899350000000     0.527580000000     0.0689318  
H118     H      0.279220000000     0.649040000000     0.962890000000     0.060269   
H119     H      0.280970000000     0.593290000000     0.964290000000     0.0482144  
H120     H      0.204710000000     0.592160000000     0.526850000000     0.0692552  
H121     H      0.269220000000     0.535600000000     0.900040000000     0.0426556  
H122     H      0.268260000000     0.536710000000     0.844140000000     0.0588596  
H123     H      0.215730000000     0.953260000000     0.843030000000     0.068296   
H124     H      0.215200000000     0.966080000000     0.650740000000     0.0417152  
H125     H      0.212750000000     0.967260000000     0.594890000000     0.0466839  
H126     H      0.293480000000     0.523920000000     0.592130000000     0.0687853  
H127     H      0.531080000000     0.779710000000     0.900020000000     0.0406078  
H128     H      0.533450000000     0.777450000000     0.843980000000     0.0444221  
H129     H      0.453010000000     0.720320000000     0.842660000000     0.0701372  
H130     H      0.040500000000     0.716470000000     0.592920000000     0.0419679  
H131     H      0.042100000000     0.718600000000     0.649410000000     0.0459141  
H132     H      0.459810000000     0.773060000000     0.649390000000     0.0708209  
H133     H      0.094880000000     0.537510000000     0.768910000000     0.0570395  
H134     H      0.151030000000     0.539590000000     0.766990000000     0.048236   
H135     H      0.152010000000     0.958330000000     0.711290000000     0.06665    
H136     H      0.344260000000     0.964680000000     0.712440000000     0.0465812  
H137     H      0.400240000000     0.967740000000     0.709600000000     0.0615203  
H138     H      0.402170000000     0.517670000000     0.794650000000     0.0699422  
H139     H      0.038920000000     0.899800000000     0.773750000000     0.0440352  
H140     H      0.040290000000     0.843580000000     0.772000000000     0.0448297  
H141     H      0.455410000000     0.843050000000     0.721610000000     0.0694398  
H142     H      0.462570000000     0.593100000000     0.712000000000     0.0434766  
H143     H      0.460490000000     0.649240000000     0.713900000000     0.0461847  
H144     H      0.035790000000     0.650000000000     0.777610000000     0.0696352  
H145     H      0.843550000000     0.284160000000     0.028250000000     0.0413125  
H146     H      0.899900000000     0.287110000000     0.025750000000     0.0580294  
H147     H      0.902200000000     0.201090000000     0.477730000000     0.0804436  
H148     H      0.651430000000     0.286130000000     0.022520000000     0.0577658  
H149     H      0.595400000000     0.287990000000     0.021020000000     0.048867   
H150     H      0.594380000000     0.209900000000     0.460890000000     0.0701181  
H151     H      0.787040000000     0.342650000000     0.464180000000     0.0418944  
H152     H      0.788900000000     0.399000000000     0.466070000000     0.046839   
H153     H      0.711790000000     0.399350000000     0.027580000000     0.0690772  
H154     H      0.779220000000     0.149040000000     0.462890000000     0.0602954  
H155     H      0.780970000000     0.093290000000     0.464290000000     0.0485969  
H156     H      0.704710000000     0.092160000000     0.026850000000     0.0697461  
H157     H      0.769210000000     0.035600000000     0.400040000000     0.042798   
H158     H      0.768260000000     0.036710000000     0.344140000000     0.0587014  
H159     H      0.715730000000     0.453260000000     0.343030000000     0.0683057  
H160     H      0.715200000000     0.466080000000     0.150740000000     0.0417646  
H161     H      0.712750000000     0.467260000000     0.094890000000     0.0469876  
H162     H      0.793480000000     0.023920000000     0.092130000000     0.0692359  
H163     H      0.031080000000     0.279710000000     0.400020000000     0.0409151  
H164     H      0.033450000000     0.277450000000     0.343980000000     0.0444676  
H165     H      0.953010000000     0.220320000000     0.342660000000     0.0701361  
H166     H      0.540500000000     0.216470000000     0.092920000000     0.0421228  
H167     H      0.542100000000     0.218600000000     0.149410000000     0.0458929  
H168     H      0.959810000000     0.273060000000     0.149390000000     0.0710566  
H169     H      0.594880000000     0.037510000000     0.268910000000     0.0570685  
H170     H      0.651030000000     0.039590000000     0.266990000000     0.0482417  
H171     H      0.652010000000     0.458320000000     0.211290000000     0.0666427  
H172     H      0.844260000000     0.464680000000     0.212440000000     0.0468153  
H173     H      0.900240000000     0.467740000000     0.209600000000     0.0617464  
H174     H      0.902170000000     0.017670000000     0.294650000000     0.0699912  
H175     H      0.538920000000     0.399800000000     0.273750000000     0.0441945  
H176     H      0.540290000000     0.343580000000     0.272000000000     0.0449671  
H177     H      0.955410000000     0.343050000000     0.221610000000     0.0694524  
H178     H      0.962570000000     0.093100000000     0.212000000000     0.0438804  
H179     H      0.960490000000     0.149240000000     0.213900000000     0.0461849  
H180     H      0.535790000000     0.150000000000     0.277610000000     0.0697461  
H181     H      0.843550000000     0.284160000000     0.528250000000     0.0410834  
H182     H      0.899900000000     0.287110000000     0.525750000000     0.0577418  
H183     H      0.902200000000     0.201090000000     0.977730000000     0.0804909  
H184     H      0.651430000000     0.286130000000     0.522520000000     0.0577454  
H185     H      0.595400000000     0.287990000000     0.521020000000     0.0486935  
H186     H      0.594380000000     0.209900000000     0.960890000000     0.0700362  
H187     H      0.787040000000     0.342650000000     0.964180000000     0.0417836  
H188     H      0.788900000000     0.399000000000     0.966070000000     0.046729   
H189     H      0.711790000000     0.399350000000     0.527580000000     0.0689534  
H190     H      0.779220000000     0.149040000000     0.962890000000     0.0602996  
H191     H      0.780970000000     0.093290000000     0.964290000000     0.0485293  
H192     H      0.704710000000     0.092160000000     0.526850000000     0.0696004  
H193     H      0.769210000000     0.035600000000     0.900040000000     0.0427759  
H194     H      0.768260000000     0.036710000000     0.844140000000     0.0586896  
H195     H      0.715730000000     0.453260000000     0.843030000000     0.0682918  
H196     H      0.715200000000     0.466080000000     0.650740000000     0.0417157  
H197     H      0.712750000000     0.467260000000     0.594890000000     0.0468008  
H198     H      0.793480000000     0.023920000000     0.592130000000     0.0689958  
H199     H      0.031080000000     0.279710000000     0.900020000000     0.0408463  
H200     H      0.033450000000     0.277450000000     0.843980000000     0.0444411  
H201     H      0.953010000000     0.220320000000     0.842660000000     0.0701276  
H202     H      0.540500000000     0.216470000000     0.592920000000     0.0419013  
H203     H      0.542100000000     0.218600000000     0.649410000000     0.0458361  
H204     H      0.959810000000     0.273060000000     0.649390000000     0.0710477  
H205     H      0.594880000000     0.037510000000     0.768910000000     0.0570526  
H206     H      0.651030000000     0.039590000000     0.766990000000     0.0482274  
H207     H      0.652010000000     0.458320000000     0.711290000000     0.0666161  
H208     H      0.844260000000     0.464680000000     0.712440000000     0.0467778  
H209     H      0.900240000000     0.467740000000     0.709600000000     0.061694   
H210     H      0.902170000000     0.017670000000     0.794650000000     0.0699648  
H211     H      0.538920000000     0.399800000000     0.773750000000     0.0441887  
H212     H      0.540290000000     0.343580000000     0.772000000000     0.0449419  
H213     H      0.955410000000     0.343050000000     0.721610000000     0.0694287  
H214     H      0.962570000000     0.093100000000     0.712000000000     0.0438213  
H215     H      0.960490000000     0.149240000000     0.713900000000     0.0461386  
H216     H      0.535790000000     0.150000000000     0.777610000000     0.0697361  
H217     H      0.843550000000     0.784160000000     0.028250000000     0.0412604  
H218     H      0.899900000000     0.787110000000     0.025750000000     0.0579925  
H219     H      0.902200000000     0.701090000000     0.477730000000     0.0803334  
H220     H      0.651430000000     0.786130000000     0.022520000000     0.0577456  
H221     H      0.595400000000     0.787980000000     0.021020000000     0.0488263  
H222     H      0.594380000000     0.709900000000     0.460890000000     0.0700226  
H223     H      0.787040000000     0.842640000000     0.464180000000     0.0418464  
H224     H      0.788900000000     0.898990000000     0.466070000000     0.0466775  
H225     H      0.711790000000     0.899350000000     0.027580000000     0.0689912  
H226     H      0.779220000000     0.649040000000     0.462890000000     0.0602263  
H227     H      0.780970000000     0.593290000000     0.464290000000     0.0482579  
H228     H      0.704710000000     0.592160000000     0.026850000000     0.0693062  
H229     H      0.769210000000     0.535600000000     0.400040000000     0.0426431  
H230     H      0.768260000000     0.536710000000     0.344140000000     0.0588406  
H231     H      0.715730000000     0.953260000000     0.343030000000     0.0682893  
H232     H      0.715200000000     0.966080000000     0.150740000000     0.0417143  
H233     H      0.712750000000     0.967260000000     0.094890000000     0.0468137  
H234     H      0.793480000000     0.523920000000     0.092130000000     0.0689636  
H235     H      0.031080000000     0.779710000000     0.400020000000     0.0408571  
H236     H      0.033450000000     0.777450000000     0.343980000000     0.0444429  
H237     H      0.953010000000     0.720320000000     0.342660000000     0.0700938  
H238     H      0.540500000000     0.716470000000     0.092920000000     0.0420287  
H239     H      0.542100000000     0.718600000000     0.149410000000     0.045814   
H240     H      0.959810000000     0.773060000000     0.149390000000     0.0710111  
H241     H      0.594880000000     0.537510000000     0.268910000000     0.0569424  
H242     H      0.651030000000     0.539590000000     0.266990000000     0.0481992  
H243     H      0.652010000000     0.958330000000     0.211290000000     0.0666447  
H244     H      0.844260000000     0.964680000000     0.212440000000     0.0465858  
H245     H      0.900240000000     0.967740000000     0.209600000000     0.061516   
H246     H      0.902170000000     0.517670000000     0.294650000000     0.0697065  
H247     H      0.538920000000     0.899800000000     0.273750000000     0.0441014  
H248     H      0.540290000000     0.843580000000     0.272000000000     0.0449334  
H249     H      0.955410000000     0.843050000000     0.221610000000     0.0694468  
H250     H      0.962570000000     0.593100000000     0.212000000000     0.0434515  
H251     H      0.960490000000     0.649240000000     0.213900000000     0.0460867  
H252     H      0.535790000000     0.650000000000     0.277610000000     0.0696964  
H253     H      0.843550000000     0.784160000000     0.528250000000     0.0410306  
H254     H      0.899900000000     0.787110000000     0.525750000000     0.0577038  
H255     H      0.902200000000     0.701090000000     0.977730000000     0.0803811  
H256     H      0.651430000000     0.786130000000     0.522520000000     0.0577251  
H257     H      0.595400000000     0.787980000000     0.521020000000     0.0486524  
H258     H      0.594380000000     0.709900000000     0.960890000000     0.0699404  
H259     H      0.787040000000     0.842640000000     0.964180000000     0.0417353  
H260     H      0.788900000000     0.898990000000     0.966070000000     0.0465674  
H261     H      0.711790000000     0.899350000000     0.527580000000     0.0688669  
H262     H      0.779220000000     0.649040000000     0.962890000000     0.0602307  
H263     H      0.780970000000     0.593290000000     0.964290000000     0.0481901  
H264     H      0.704710000000     0.592160000000     0.526850000000     0.069158   
H265     H      0.769210000000     0.535600000000     0.900040000000     0.0426206  
H266     H      0.768260000000     0.536710000000     0.844140000000     0.0588291  
H267     H      0.715730000000     0.953260000000     0.843030000000     0.0682753  
H268     H      0.715200000000     0.966080000000     0.650740000000     0.0416653  
H269     H      0.712750000000     0.967260000000     0.594890000000     0.0466261  
H270     H      0.793480000000     0.523920000000     0.592130000000     0.0687211  
H271     H      0.031080000000     0.779710000000     0.900020000000     0.0407881  
H272     H      0.033450000000     0.777450000000     0.843980000000     0.0444163  
H273     H      0.953010000000     0.720320000000     0.842660000000     0.0700853  
H274     H      0.540500000000     0.716470000000     0.592920000000     0.0418059  
H275     H      0.542100000000     0.718600000000     0.649410000000     0.0457567  
H276     H      0.959810000000     0.773060000000     0.649390000000     0.071002   
H277     H      0.594880000000     0.537510000000     0.768910000000     0.0569264  
H278     H      0.651030000000     0.539590000000     0.766990000000     0.048185   
H279     H      0.652010000000     0.958330000000     0.711290000000     0.066618   
H280     H      0.844260000000     0.964680000000     0.712440000000     0.0465474  
H281     H      0.900240000000     0.967740000000     0.709600000000     0.0614629  
H282     H      0.902170000000     0.517670000000     0.794650000000     0.0696799  
H283     H      0.538920000000     0.899800000000     0.773750000000     0.0440956  
H284     H      0.540290000000     0.843580000000     0.772000000000     0.0449081  
H285     H      0.955410000000     0.843050000000     0.721610000000     0.069423   
H286     H      0.962570000000     0.593100000000     0.712000000000     0.0433909  
H287     H      0.960490000000     0.649240000000     0.713900000000     0.0460399  
H288     H      0.535790000000     0.650000000000     0.777610000000     0.0696863  
N1       N      0.404980000000     0.244290000000     0.501520000000    -0.163772   
N2       N      0.340810000000     0.242220000000     0.502290000000    -0.191783   
N3       N      0.090970000000     0.248980000000     0.990910000000    -0.167811   
N4       N      0.155230000000     0.248540000000     0.990670000000    -0.188971   
N5       N      0.250410000000     0.403030000000     0.496930000000    -0.165805   
N6       N      0.249710000000     0.338860000000     0.496520000000    -0.19007    
N7       N      0.243200000000     0.088860000000     0.996030000000    -0.167629   
N8       N      0.243200000000     0.153020000000     0.996670000000    -0.187531   
N9       N      0.241990000000     0.494940000000     0.339590000000    -0.165206   
N10      N      0.241140000000     0.495090000000     0.403790000000    -0.190924   
N11      N      0.252850000000     0.995890000000     0.089580000000    -0.168374   
N12      N      0.254330000000     0.996270000000     0.153800000000    -0.191735   
N13      N      0.493590000000     0.248350000000     0.339410000000    -0.166778   
N14      N      0.492190000000     0.249330000000     0.403580000000    -0.190779   
N15      N      0.001110000000     0.246080000000     0.153350000000    -0.165379   
N16      N      0.000430000000     0.245240000000     0.089120000000    -0.189861   
N17      N      0.155430000000     0.498950000000     0.239190000000    -0.167223   
N18      N      0.091150000000     0.498110000000     0.239340000000    -0.189082   
N19      N      0.405190000000     0.993110000000     0.251890000000    -0.166297   
N20      N      0.340990000000     0.991580000000     0.253770000000    -0.191734   
N21      N      0.997950000000     0.339420000000     0.246570000000    -0.167397   
N22      N      0.997670000000     0.403520000000     0.246660000000    -0.190986   
N23      N      0.497980000000     0.153490000000     0.245990000000    -0.166946   
N24      N      0.498860000000     0.089320000000     0.245500000000    -0.189963   
N25      N      0.404980000000     0.244290000000     0.001520000000    -0.163371   
N26      N      0.340810000000     0.242220000000     0.002290000000    -0.191091   
N27      N      0.090970000000     0.248980000000     0.490910000000    -0.166806   
N28      N      0.155230000000     0.248540000000     0.490670000000    -0.188304   
N29      N      0.250410000000     0.403030000000     0.996930000000    -0.166808   
N30      N      0.249710000000     0.338860000000     0.996520000000    -0.190704   
N31      N      0.243200000000     0.088860000000     0.496030000000    -0.166638   
N32      N      0.243200000000     0.153020000000     0.496670000000    -0.186911   
N33      N      0.241990000000     0.494940000000     0.839590000000    -0.16521    
N34      N      0.241140000000     0.495090000000     0.903800000000    -0.190981   
N35      N      0.252850000000     0.995890000000     0.589580000000    -0.168514   
N36      N      0.254330000000     0.996270000000     0.653800000000    -0.191746   
N37      N      0.493590000000     0.248350000000     0.839410000000    -0.166781   
N38      N      0.492190000000     0.249330000000     0.903580000000    -0.190778   
N39      N      0.001110000000     0.246080000000     0.653350000000    -0.165369   
N40      N      0.000430000000     0.245240000000     0.589120000000    -0.189987   
N41      N      0.155430000000     0.498950000000     0.739190000000    -0.167228   
N42      N      0.091150000000     0.498110000000     0.739340000000    -0.189092   
N43      N      0.405190000000     0.993110000000     0.751890000000    -0.166308   
N44      N      0.340990000000     0.991580000000     0.753770000000    -0.191738   
N45      N      0.997950000000     0.339420000000     0.746570000000    -0.167408   
N46      N      0.997670000000     0.403520000000     0.746660000000    -0.190976   
N47      N      0.497980000000     0.153490000000     0.745990000000    -0.166949   
N48      N      0.498860000000     0.089320000000     0.745500000000    -0.189973   
N49      N      0.404980000000     0.744280000000     0.501520000000    -0.163778   
N50      N      0.340810000000     0.742220000000     0.502290000000    -0.191795   
N51      N      0.090970000000     0.748980000000     0.990910000000    -0.167825   
N52      N      0.155230000000     0.748540000000     0.990670000000    -0.18898    
N53      N      0.250410000000     0.903030000000     0.496930000000    -0.165856   
N54      N      0.249710000000     0.838860000000     0.496520000000    -0.190074   
N55      N      0.243200000000     0.588860000000     0.996030000000    -0.167879   
N56      N      0.243200000000     0.653020000000     0.996670000000    -0.187539   
N57      N      0.241990000000     0.994940000000     0.339590000000    -0.166435   
N58      N      0.241140000000     0.995090000000     0.403790000000    -0.192789   
N59      N      0.252850000000     0.495890000000     0.089580000000    -0.166494   
N60      N      0.254330000000     0.496270000000     0.153800000000    -0.190585   
N61      N      0.493590000000     0.748350000000     0.339410000000    -0.166779   
N62      N      0.492190000000     0.749340000000     0.403580000000    -0.190788   
N63      N      0.001110000000     0.746080000000     0.153350000000    -0.165404   
N64      N      0.000430000000     0.745240000000     0.089120000000    -0.189853   
N65      N      0.155430000000     0.998950000000     0.239190000000    -0.168448   
N66      N      0.091150000000     0.998110000000     0.239340000000    -0.190927   
N67      N      0.405190000000     0.493110000000     0.251890000000    -0.164409   
N68      N      0.340990000000     0.491580000000     0.253770000000    -0.190549   
N69      N      0.997950000000     0.839420000000     0.246570000000    -0.167386   
N70      N      0.997670000000     0.903520000000     0.246660000000    -0.190978   
N71      N      0.497980000000     0.653490000000     0.245990000000    -0.166947   
N72      N      0.498860000000     0.589310000000     0.245500000000    -0.190276   
N73      N      0.404980000000     0.744280000000     0.001520000000    -0.163374   
N74      N      0.340810000000     0.742220000000     0.002290000000    -0.191099   
N75      N      0.090970000000     0.748980000000     0.490910000000    -0.166817   
N76      N      0.155230000000     0.748540000000     0.490670000000    -0.188311   
N77      N      0.250410000000     0.903030000000     0.996930000000    -0.16686    
N78      N      0.249710000000     0.838860000000     0.996520000000    -0.190709   
N79      N      0.243200000000     0.588860000000     0.496030000000    -0.166882   
N80      N      0.243200000000     0.653020000000     0.496670000000    -0.186916   
N81      N      0.241990000000     0.994940000000     0.839590000000    -0.16644    
N82      N      0.241140000000     0.995090000000     0.903800000000    -0.192846   
N83      N      0.252850000000     0.495890000000     0.589580000000    -0.166626   
N84      N      0.254330000000     0.496270000000     0.653800000000    -0.190591   
N85      N      0.493590000000     0.748350000000     0.839410000000    -0.166782   
N86      N      0.492190000000     0.749340000000     0.903580000000    -0.190787   
N87      N      0.001110000000     0.746080000000     0.653350000000    -0.165393   
N88      N      0.000430000000     0.745240000000     0.589120000000    -0.18998    
N89      N      0.155430000000     0.998950000000     0.739190000000    -0.168455   
N90      N      0.091150000000     0.998110000000     0.739340000000    -0.190941   
N91      N      0.405190000000     0.493110000000     0.751890000000    -0.164417   
N92      N      0.340990000000     0.491580000000     0.753770000000    -0.190551   
N93      N      0.997950000000     0.839420000000     0.746570000000    -0.167397   
N94      N      0.997670000000     0.903520000000     0.746660000000    -0.190967   
N95      N      0.497980000000     0.653490000000     0.745990000000    -0.166951   
N96      N      0.498860000000     0.589310000000     0.745500000000    -0.190287   
N97      N      0.904980000000     0.244290000000     0.501520000000    -0.163756   
N98      N      0.840810000000     0.242220000000     0.502290000000    -0.191803   
N99      N      0.590970000000     0.248980000000     0.990910000000    -0.168012   
N100     N      0.655230000000     0.248540000000     0.990670000000    -0.188975   
N101     N      0.750420000000     0.403030000000     0.496930000000    -0.165829   
N102     N      0.749710000000     0.338860000000     0.496520000000    -0.19007    
N103     N      0.743190000000     0.088860000000     0.996030000000    -0.167637   
N104     N      0.743210000000     0.153020000000     0.996670000000    -0.187532   
N105     N      0.742000000000     0.494940000000     0.339590000000    -0.165216   
N106     N      0.741140000000     0.495090000000     0.403790000000    -0.190937   
N107     N      0.752860000000     0.995890000000     0.089580000000    -0.168376   
N108     N      0.754330000000     0.996270000000     0.153800000000    -0.19174    
N109     N      0.993590000000     0.248350000000     0.339410000000    -0.167769   
N110     N      0.992190000000     0.249330000000     0.403580000000    -0.192248   
N111     N      0.501110000000     0.246080000000     0.153350000000    -0.16645    
N112     N      0.500430000000     0.245240000000     0.089120000000    -0.190955   
N113     N      0.655430000000     0.498950000000     0.239190000000    -0.167231   
N114     N      0.591150000000     0.498110000000     0.239340000000    -0.189181   
N115     N      0.905190000000     0.993110000000     0.251890000000    -0.16637    
N116     N      0.840990000000     0.991580000000     0.253770000000    -0.191813   
N117     N      0.497950000000     0.339420000000     0.246570000000    -0.166381   
N118     N      0.497670000000     0.403520000000     0.246660000000    -0.189969   
N119     N      0.997980000000     0.153490000000     0.245990000000    -0.167987   
N120     N      0.998860000000     0.089320000000     0.245500000000    -0.190932   
N121     N      0.904980000000     0.244290000000     0.001520000000    -0.163354   
N122     N      0.840810000000     0.242220000000     0.002290000000    -0.19111    
N123     N      0.590970000000     0.248980000000     0.490910000000    -0.167004   
N124     N      0.655230000000     0.248540000000     0.490670000000    -0.188306   
N125     N      0.750420000000     0.403030000000     0.996930000000    -0.166833   
N126     N      0.749710000000     0.338860000000     0.996520000000    -0.190706   
N127     N      0.743190000000     0.088860000000     0.496030000000    -0.166643   
N128     N      0.743210000000     0.153020000000     0.496670000000    -0.186911   
N129     N      0.742000000000     0.494940000000     0.839590000000    -0.16522    
N130     N      0.741140000000     0.495090000000     0.903800000000    -0.190994   
N131     N      0.752860000000     0.995890000000     0.589580000000    -0.168517   
N132     N      0.754330000000     0.996270000000     0.653800000000    -0.191751   
N133     N      0.993590000000     0.248350000000     0.839410000000    -0.167772   
N134     N      0.992190000000     0.249330000000     0.903580000000    -0.192246   
N135     N      0.501110000000     0.246080000000     0.653350000000    -0.166443   
N136     N      0.500430000000     0.245240000000     0.589120000000    -0.191085   
N137     N      0.655430000000     0.498950000000     0.739190000000    -0.167236   
N138     N      0.591150000000     0.498110000000     0.739340000000    -0.189192   
N139     N      0.905190000000     0.993110000000     0.751890000000    -0.166381   
N140     N      0.840990000000     0.991580000000     0.753770000000    -0.191817   
N141     N      0.497950000000     0.339420000000     0.746570000000    -0.166391   
N142     N      0.497670000000     0.403520000000     0.746660000000    -0.189958   
N143     N      0.997980000000     0.153490000000     0.745990000000    -0.167992   
N144     N      0.998860000000     0.089320000000     0.745500000000    -0.190943   
N145     N      0.904980000000     0.744280000000     0.501520000000    -0.163762   
N146     N      0.840810000000     0.742220000000     0.502290000000    -0.191815   
N147     N      0.590970000000     0.748980000000     0.990910000000    -0.168027   
N148     N      0.655230000000     0.748540000000     0.990670000000    -0.188984   
N149     N      0.750420000000     0.903030000000     0.496930000000    -0.165879   
N150     N      0.749710000000     0.838860000000     0.496520000000    -0.190074   
N151     N      0.743190000000     0.588860000000     0.996030000000    -0.167887   
N152     N      0.743210000000     0.653020000000     0.996670000000    -0.18754    
N153     N      0.742000000000     0.994940000000     0.339590000000    -0.166446   
N154     N      0.741140000000     0.995090000000     0.403790000000    -0.192801   
N155     N      0.752860000000     0.495890000000     0.089580000000    -0.166497   
N156     N      0.754330000000     0.496270000000     0.153800000000    -0.19059    
N157     N      0.993590000000     0.748350000000     0.339410000000    -0.16777    
N158     N      0.992190000000     0.749340000000     0.403580000000    -0.192256   
N159     N      0.501110000000     0.746080000000     0.153350000000    -0.166475   
N160     N      0.500430000000     0.745240000000     0.089120000000    -0.190948   
N161     N      0.655430000000     0.998950000000     0.239190000000    -0.168457   
N162     N      0.591150000000     0.998110000000     0.239340000000    -0.191028   
N163     N      0.905190000000     0.493110000000     0.251890000000    -0.164486   
N164     N      0.840990000000     0.491580000000     0.253770000000    -0.19063    
N165     N      0.497950000000     0.839420000000     0.246570000000    -0.166372   
N166     N      0.497670000000     0.903520000000     0.246660000000    -0.189962   
N167     N      0.997980000000     0.653490000000     0.245990000000    -0.16799    
N168     N      0.998860000000     0.589310000000     0.245500000000    -0.191244   
N169     N      0.904980000000     0.744280000000     0.001520000000    -0.163358   
N170     N      0.840810000000     0.742220000000     0.002290000000    -0.191118   
N171     N      0.590970000000     0.748980000000     0.490910000000    -0.167015   
N172     N      0.655230000000     0.748540000000     0.490670000000    -0.188313   
N173     N      0.750420000000     0.903030000000     0.996930000000    -0.166885   
N174     N      0.749710000000     0.838860000000     0.996520000000    -0.190711   
N175     N      0.743190000000     0.588860000000     0.496030000000    -0.166887   
N176     N      0.743210000000     0.653020000000     0.496670000000    -0.186916   
N177     N      0.742000000000     0.994940000000     0.839590000000    -0.166451   
N178     N      0.741140000000     0.995090000000     0.903800000000    -0.192858   
N179     N      0.752860000000     0.495890000000     0.589580000000    -0.16663    
N180     N      0.754330000000     0.496270000000     0.653800000000    -0.190597   
N181     N      0.993590000000     0.748350000000     0.839410000000    -0.167773   
N182     N      0.992190000000     0.749340000000     0.903580000000    -0.192255   
N183     N      0.501110000000     0.746080000000     0.653350000000    -0.166468   
N184     N      0.500430000000     0.745240000000     0.589120000000    -0.191079   
N185     N      0.655430000000     0.998950000000     0.739190000000    -0.168464   
N186     N      0.591150000000     0.998110000000     0.739340000000    -0.191042   
N187     N      0.905190000000     0.493110000000     0.751890000000    -0.164494   
N188     N      0.840990000000     0.491580000000     0.753770000000    -0.190632   
N189     N      0.497950000000     0.839420000000     0.746570000000    -0.166382   
N190     N      0.497670000000     0.903520000000     0.746660000000    -0.189951   
N191     N      0.997980000000     0.653490000000     0.745990000000    -0.167995   
N192     N      0.998860000000     0.589310000000     0.745500000000    -0.191256   
O1       O      0.495240000000     0.042950000000     0.219980000000    -0.385944   
O2       O      0.495730000000     0.449180000000     0.220470000000    -0.3707     
O3       O      0.449600000000     0.494550000000     0.223260000000    -0.385089   
O4       O      0.043170000000     0.995620000000     0.216810000000    -0.372055   
O5       O      0.047040000000     0.998660000000     0.268250000000    -0.38501    
O6       O      0.453220000000     0.496350000000     0.274730000000    -0.384115   
O7       O      0.001940000000     0.449850000000     0.271770000000    -0.385498   
O8       O      0.000110000000     0.043390000000     0.271370000000    -0.371716   
O9       O      0.023190000000     0.199760000000     0.250670000000    -0.386192   
O10      O      0.023880000000     0.293250000000     0.246370000000    -0.385943   
O11      O      0.021380000000     0.249580000000     0.294420000000    -0.387921   
O12      O      0.025530000000     0.243480000000     0.200680000000    -0.385854   
O13      O      0.474190000000     0.248810000000     0.198640000000    -0.392543   
O14      O      0.470080000000     0.244020000000     0.291970000000    -0.387238   
O15      O      0.472180000000     0.293180000000     0.246280000000    -0.388458   
O16      O      0.472220000000     0.199610000000     0.242220000000    -0.388464   
O17      O      0.293920000000     0.467820000000     0.249120000000    -0.387334   
O18      O      0.200510000000     0.471550000000     0.241250000000    -0.391363   
O19      O      0.250110000000     0.470230000000     0.199370000000    -0.392848   
O20      O      0.242390000000     0.469360000000     0.292920000000    -0.38449    
O21      O      0.246250000000     0.020760000000     0.293740000000    -0.384061   
O22      O      0.254660000000     0.021600000000     0.200390000000    -0.370749   
O23      O      0.202680000000     0.023000000000     0.243790000000    -0.384066   
O24      O      0.296230000000     0.019270000000     0.252300000000    -0.369691   
O25      O      0.219260000000     0.041590000000     0.999260000000    -0.383654   
O26      O      0.223360000000     0.448140000000     0.999380000000    -0.38633    
O27      O      0.224460000000     0.494150000000     0.045100000000    -0.391053   
O28      O      0.218120000000     0.993420000000     0.451580000000    -0.374537   
O29      O      0.269560000000     0.997660000000     0.447970000000    -0.392393   
O30      O      0.275860000000     0.498310000000     0.041610000000    -0.383725   
O31      O      0.274700000000     0.450210000000     0.493780000000    -0.385809   
O32      O      0.270600000000     0.043860000000     0.493620000000    -0.387664   
O33      O      0.004080000000     0.220500000000     0.042310000000    -0.383226   
O34      O      0.992730000000     0.222460000000     0.448960000000    -0.376157   
O35      O      0.045090000000     0.222580000000     0.489560000000    -0.386444   
O36      O      0.452020000000     0.220120000000     0.999750000000    -0.385098   
O37      O      0.450380000000     0.271650000000     0.998900000000    -0.382775   
O38      O      0.044350000000     0.273580000000     0.496970000000    -0.388068   
O39      O      0.497040000000     0.273840000000     0.450230000000    -0.390911   
O40      O      0.497550000000     0.271630000000     0.043710000000    -0.378369   
O41      O      0.243140000000     0.199460000000     0.022360000000    -0.36979    
O42      O      0.247450000000     0.292900000000     0.022170000000    -0.377763   
O43      O      0.199510000000     0.249020000000     0.019240000000    -0.377466   
O44      O      0.293170000000     0.245180000000     0.025330000000    -0.387377   
O45      O      0.296590000000     0.242760000000     0.473800000000    -0.380827   
O46      O      0.203070000000     0.246540000000     0.467760000000    -0.373346   
O47      O      0.252560000000     0.292530000000     0.470800000000    -0.387191   
O48      O      0.248540000000     0.198780000000     0.471020000000    -0.378646   
O49      O      0.495240000000     0.042950000000     0.719980000000    -0.385988   
O50      O      0.495730000000     0.449180000000     0.720470000000    -0.370731   
O51      O      0.449600000000     0.494550000000     0.723260000000    -0.385124   
O52      O      0.043170000000     0.995620000000     0.716810000000    -0.372096   
O53      O      0.047040000000     0.998660000000     0.768250000000    -0.385029   
O54      O      0.453220000000     0.496350000000     0.774730000000    -0.384136   
O55      O      0.001940000000     0.449850000000     0.771770000000    -0.385515   
O56      O      0.000110000000     0.043390000000     0.771370000000    -0.371722   
O57      O      0.023190000000     0.199760000000     0.750670000000    -0.386196   
O58      O      0.023880000000     0.293250000000     0.746370000000    -0.38595    
O59      O      0.021380000000     0.249580000000     0.794420000000    -0.387922   
O60      O      0.025530000000     0.243480000000     0.700680000000    -0.385872   
O61      O      0.474190000000     0.248810000000     0.698640000000    -0.39256    
O62      O      0.470080000000     0.244020000000     0.791970000000    -0.387242   
O63      O      0.472180000000     0.293180000000     0.746280000000    -0.388465   
O64      O      0.472220000000     0.199610000000     0.742220000000    -0.388474   
O65      O      0.293920000000     0.467820000000     0.749120000000    -0.387342   
O66      O      0.200510000000     0.471550000000     0.741250000000    -0.391369   
O67      O      0.250110000000     0.470230000000     0.699370000000    -0.392867   
O68      O      0.242390000000     0.469360000000     0.792920000000    -0.384493   
O69      O      0.246250000000     0.020760000000     0.793740000000    -0.384058   
O70      O      0.254660000000     0.021600000000     0.700390000000    -0.370755   
O71      O      0.202680000000     0.023000000000     0.743790000000    -0.384071   
O72      O      0.296230000000     0.019270000000     0.752300000000    -0.369687   
O73      O      0.219260000000     0.041590000000     0.499250000000    -0.383231   
O74      O      0.223360000000     0.448140000000     0.499380000000    -0.385878   
O75      O      0.224460000000     0.494150000000     0.545100000000    -0.392454   
O76      O      0.218120000000     0.993420000000     0.951580000000    -0.374394   
O77      O      0.269560000000     0.997660000000     0.947970000000    -0.39221    
O78      O      0.275860000000     0.498310000000     0.541610000000    -0.385166   
O79      O      0.274700000000     0.450210000000     0.993780000000    -0.386009   
O80      O      0.270600000000     0.043860000000     0.993620000000    -0.387841   
O81      O      0.004080000000     0.220500000000     0.542310000000    -0.384605   
O82      O      0.992730000000     0.222460000000     0.948960000000    -0.376005   
O83      O      0.045090000000     0.222580000000     0.989570000000    -0.386703   
O84      O      0.452020000000     0.220120000000     0.499750000000    -0.382811   
O85      O      0.450380000000     0.271650000000     0.498900000000    -0.38027    
O86      O      0.044350000000     0.273580000000     0.996960000000    -0.388621   
O87      O      0.497040000000     0.273840000000     0.950230000000    -0.390777   
O88      O      0.497550000000     0.271630000000     0.543710000000    -0.379688   
O89      O      0.243140000000     0.199460000000     0.522360000000    -0.37148    
O90      O      0.247450000000     0.292900000000     0.522170000000    -0.379388   
O91      O      0.199510000000     0.249020000000     0.519240000000    -0.3791     
O92      O      0.293170000000     0.245180000000     0.525330000000    -0.387086   
O93      O      0.296590000000     0.242760000000     0.973800000000    -0.382382   
O94      O      0.203070000000     0.246540000000     0.967760000000    -0.372899   
O95      O      0.252560000000     0.292530000000     0.970800000000    -0.386795   
O96      O      0.248540000000     0.198780000000     0.971020000000    -0.378139   
O97      O      0.495240000000     0.542950000000     0.219980000000    -0.38863    
O98      O      0.495730000000     0.949180000000     0.220470000000    -0.370276   
O99      O      0.449600000000     0.994550000000     0.223260000000    -0.385489   
O100     O      0.043170000000     0.495620000000     0.216810000000    -0.371641   
O101     O      0.047040000000     0.498670000000     0.268250000000    -0.384197   
O102     O      0.453220000000     0.996340000000     0.274730000000    -0.384983   
O103     O      0.001940000000     0.949850000000     0.271770000000    -0.385145   
O104     O      0.000110000000     0.543390000000     0.271370000000    -0.374278   
O105     O      0.023190000000     0.699760000000     0.250670000000    -0.386224   
O106     O      0.023880000000     0.793250000000     0.246370000000    -0.385948   
O107     O      0.021380000000     0.749580000000     0.294420000000    -0.387926   
O108     O      0.025530000000     0.743480000000     0.200680000000    -0.385873   
O109     O      0.474190000000     0.748810000000     0.198640000000    -0.392558   
O110     O      0.470080000000     0.744010000000     0.291970000000    -0.38723    
O111     O      0.472180000000     0.793180000000     0.246280000000    -0.388475   
O112     O      0.472220000000     0.699610000000     0.242220000000    -0.388487   
O113     O      0.293920000000     0.967820000000     0.249120000000    -0.386455   
O114     O      0.200510000000     0.971550000000     0.241250000000    -0.390359   
O115     O      0.250110000000     0.970230000000     0.199370000000    -0.391854   
O116     O      0.242390000000     0.969360000000     0.292920000000    -0.38361    
O117     O      0.246250000000     0.520760000000     0.293740000000    -0.387205   
O118     O      0.254660000000     0.521600000000     0.200390000000    -0.374014   
O119     O      0.202680000000     0.523000000000     0.243790000000    -0.387373   
O120     O      0.296230000000     0.519270000000     0.252300000000    -0.37282    
O121     O      0.219260000000     0.541590000000     0.999260000000    -0.386313   
O122     O      0.223360000000     0.948150000000     0.999380000000    -0.385867   
O123     O      0.224460000000     0.994150000000     0.045100000000    -0.391419   
O124     O      0.218120000000     0.493420000000     0.451580000000    -0.374114   
O125     O      0.269560000000     0.497660000000     0.447970000000    -0.39158    
O126     O      0.275860000000     0.998310000000     0.041610000000    -0.384571   
O127     O      0.274700000000     0.950210000000     0.493780000000    -0.385365   
O128     O      0.270600000000     0.543860000000     0.493620000000    -0.390264   
O129     O      0.004080000000     0.720500000000     0.042310000000    -0.383407   
O130     O      0.992730000000     0.722460000000     0.448960000000    -0.376224   
O131     O      0.045090000000     0.722580000000     0.489560000000    -0.386521   
O132     O      0.452020000000     0.720120000000     0.999750000000    -0.385173   
O133     O      0.450380000000     0.771650000000     0.998900000000    -0.382823   
O134     O      0.044350000000     0.773580000000     0.496970000000    -0.388103   
O135     O      0.497040000000     0.773840000000     0.450230000000    -0.390947   
O136     O      0.497550000000     0.771630000000     0.043710000000    -0.378289   
O137     O      0.243140000000     0.699460000000     0.022360000000    -0.369724   
O138     O      0.247450000000     0.792890000000     0.022170000000    -0.377909   
O139     O      0.199510000000     0.749020000000     0.019240000000    -0.377483   
O140     O      0.293170000000     0.745170000000     0.025330000000    -0.387417   
O141     O      0.296590000000     0.742760000000     0.473800000000    -0.380835   
O142     O      0.203070000000     0.746540000000     0.467760000000    -0.373347   
O143     O      0.252560000000     0.792530000000     0.470800000000    -0.387191   
O144     O      0.248540000000     0.698780000000     0.471020000000    -0.37865    
O145     O      0.495240000000     0.542950000000     0.719980000000    -0.388681   
O146     O      0.495730000000     0.949180000000     0.720470000000    -0.370306   
O147     O      0.449600000000     0.994550000000     0.723260000000    -0.385525   
O148     O      0.043170000000     0.495620000000     0.716810000000    -0.371682   
O149     O      0.047040000000     0.498670000000     0.768250000000    -0.384214   
O150     O      0.453220000000     0.996340000000     0.774730000000    -0.385005   
O151     O      0.001940000000     0.949850000000     0.771770000000    -0.385161   
O152     O      0.000110000000     0.543390000000     0.771370000000    -0.374289   
O153     O      0.023190000000     0.699760000000     0.750670000000    -0.386228   
O154     O      0.023880000000     0.793250000000     0.746370000000    -0.385954   
O155     O      0.021380000000     0.749580000000     0.794420000000    -0.387927   
O156     O      0.025530000000     0.743480000000     0.700680000000    -0.385892   
O157     O      0.474190000000     0.748810000000     0.698640000000    -0.392575   
O158     O      0.470080000000     0.744010000000     0.791970000000    -0.387234   
O159     O      0.472180000000     0.793180000000     0.746280000000    -0.388483   
O160     O      0.472220000000     0.699610000000     0.742220000000    -0.388498   
O161     O      0.293920000000     0.967820000000     0.749120000000    -0.386461   
O162     O      0.200510000000     0.971550000000     0.741250000000    -0.390363   
O163     O      0.250110000000     0.970230000000     0.699370000000    -0.391872   
O164     O      0.242390000000     0.969360000000     0.792920000000    -0.383612   
O165     O      0.246250000000     0.520760000000     0.793740000000    -0.387206   
O166     O      0.254660000000     0.521600000000     0.700390000000    -0.374028   
O167     O      0.202680000000     0.523000000000     0.743790000000    -0.387386   
O168     O      0.296230000000     0.519270000000     0.752300000000    -0.372821   
O169     O      0.219260000000     0.541590000000     0.499250000000    -0.385889   
O170     O      0.223360000000     0.948150000000     0.499380000000    -0.385415   
O171     O      0.224460000000     0.994150000000     0.545100000000    -0.392822   
O172     O      0.218120000000     0.493420000000     0.951580000000    -0.373971   
O173     O      0.269560000000     0.497660000000     0.947970000000    -0.391397   
O174     O      0.275860000000     0.998310000000     0.541610000000    -0.386017   
O175     O      0.274700000000     0.950210000000     0.993780000000    -0.385566   
O176     O      0.270600000000     0.543860000000     0.993620000000    -0.390442   
O177     O      0.004080000000     0.720500000000     0.542310000000    -0.384792   
O178     O      0.992730000000     0.722460000000     0.948960000000    -0.376072   
O179     O      0.045090000000     0.722580000000     0.989570000000    -0.38678    
O180     O      0.452020000000     0.720120000000     0.499750000000    -0.382878   
O181     O      0.450380000000     0.771650000000     0.498900000000    -0.380309   
O182     O      0.044350000000     0.773580000000     0.996960000000    -0.388657   
O183     O      0.497040000000     0.773840000000     0.950230000000    -0.390813   
O184     O      0.497550000000     0.771630000000     0.543710000000    -0.379611   
O185     O      0.243140000000     0.699460000000     0.522360000000    -0.371422   
O186     O      0.247450000000     0.792890000000     0.522170000000    -0.379539   
O187     O      0.199510000000     0.749020000000     0.519240000000    -0.379123   
O188     O      0.293170000000     0.745170000000     0.525330000000    -0.387126   
O189     O      0.296590000000     0.742760000000     0.973800000000    -0.382395   
O190     O      0.203070000000     0.746540000000     0.967760000000    -0.372898   
O191     O      0.252560000000     0.792530000000     0.970800000000    -0.386793   
O192     O      0.248540000000     0.698780000000     0.971020000000    -0.378141   
O193     O      0.995250000000     0.042950000000     0.219980000000    -0.385426   
O194     O      0.995730000000     0.449180000000     0.220470000000    -0.370142   
O195     O      0.949600000000     0.494550000000     0.223260000000    -0.384749   
O196     O      0.543170000000     0.995620000000     0.216810000000    -0.37414    
O197     O      0.547040000000     0.998660000000     0.268250000000    -0.384813   
O198     O      0.953220000000     0.496350000000     0.274730000000    -0.386029   
O199     O      0.501940000000     0.449850000000     0.271770000000    -0.38816    
O200     O      0.500110000000     0.043390000000     0.271370000000    -0.374345   
O201     O      0.523190000000     0.199760000000     0.250670000000    -0.388702   
O202     O      0.523880000000     0.293250000000     0.246370000000    -0.388414   
O203     O      0.521380000000     0.249580000000     0.294420000000    -0.39039    
O204     O      0.525530000000     0.243480000000     0.200680000000    -0.38539    
O205     O      0.974190000000     0.248810000000     0.198640000000    -0.394873   
O206     O      0.970080000000     0.244020000000     0.291970000000    -0.386622   
O207     O      0.972180000000     0.293180000000     0.246280000000    -0.387809   
O208     O      0.972220000000     0.199610000000     0.242220000000    -0.387857   
O209     O      0.793920000000     0.467820000000     0.249120000000    -0.387269   
O210     O      0.700510000000     0.471550000000     0.241250000000    -0.391372   
O211     O      0.750110000000     0.470230000000     0.199370000000    -0.39284    
O212     O      0.742390000000     0.469360000000     0.292920000000    -0.384501   
O213     O      0.746250000000     0.020760000000     0.293740000000    -0.38407    
O214     O      0.754660000000     0.021600000000     0.200390000000    -0.370761   
O215     O      0.702680000000     0.023000000000     0.243790000000    -0.384086   
O216     O      0.796230000000     0.019270000000     0.252300000000    -0.369628   
O217     O      0.719260000000     0.041590000000     0.999260000000    -0.383711   
O218     O      0.723360000000     0.448140000000     0.999380000000    -0.386382   
O219     O      0.724460000000     0.494150000000     0.045100000000    -0.391104   
O220     O      0.718120000000     0.993420000000     0.451580000000    -0.37459    
O221     O      0.769560000000     0.997660000000     0.447970000000    -0.392429   
O222     O      0.775860000000     0.498310000000     0.041610000000    -0.383753   
O223     O      0.774700000000     0.450210000000     0.493780000000    -0.385845   
O224     O      0.770600000000     0.043860000000     0.493620000000    -0.387703   
O225     O      0.504080000000     0.220500000000     0.042310000000    -0.384751   
O226     O      0.492730000000     0.222460000000     0.448960000000    -0.376121   
O227     O      0.545090000000     0.222580000000     0.489560000000    -0.388565   
O228     O      0.952020000000     0.220120000000     0.999750000000    -0.384815   
O229     O      0.950380000000     0.271650000000     0.998900000000    -0.382529   
O230     O      0.544350000000     0.273580000000     0.496970000000    -0.390056   
O231     O      0.997040000000     0.273840000000     0.450230000000    -0.391578   
O232     O      0.997550000000     0.271630000000     0.043710000000    -0.380954   
O233     O      0.743140000000     0.199460000000     0.022360000000    -0.369789   
O234     O      0.747450000000     0.292900000000     0.022170000000    -0.377759   
O235     O      0.699510000000     0.249020000000     0.019240000000    -0.377477   
O236     O      0.793170000000     0.245180000000     0.025330000000    -0.38739    
O237     O      0.796590000000     0.242760000000     0.473800000000    -0.380832   
O238     O      0.703070000000     0.246540000000     0.467760000000    -0.373359   
O239     O      0.752560000000     0.292530000000     0.470800000000    -0.387206   
O240     O      0.748540000000     0.198780000000     0.471020000000    -0.378649   
O241     O      0.995250000000     0.042950000000     0.719980000000    -0.38547    
O242     O      0.995730000000     0.449180000000     0.720470000000    -0.370172   
O243     O      0.949600000000     0.494550000000     0.723260000000    -0.384784   
O244     O      0.543170000000     0.995620000000     0.716810000000    -0.374186   
O245     O      0.547040000000     0.998660000000     0.768250000000    -0.384831   
O246     O      0.953220000000     0.496350000000     0.774730000000    -0.386053   
O247     O      0.501940000000     0.449850000000     0.771770000000    -0.388181   
O248     O      0.500110000000     0.043390000000     0.771370000000    -0.374356   
O249     O      0.523190000000     0.199760000000     0.750670000000    -0.38871    
O250     O      0.523880000000     0.293250000000     0.746370000000    -0.388425   
O251     O      0.521380000000     0.249580000000     0.794420000000    -0.390393   
O252     O      0.525530000000     0.243480000000     0.700680000000    -0.385408   
O253     O      0.974190000000     0.248810000000     0.698640000000    -0.394896   
O254     O      0.970080000000     0.244020000000     0.791970000000    -0.386625   
O255     O      0.972180000000     0.293180000000     0.746280000000    -0.387816   
O256     O      0.972220000000     0.199610000000     0.742220000000    -0.387866   
O257     O      0.793920000000     0.467820000000     0.749120000000    -0.387278   
O258     O      0.700510000000     0.471550000000     0.741250000000    -0.391378   
O259     O      0.750110000000     0.470230000000     0.699370000000    -0.392859   
O260     O      0.742390000000     0.469360000000     0.792920000000    -0.384504   
O261     O      0.746250000000     0.020760000000     0.793740000000    -0.384067   
O262     O      0.754660000000     0.021600000000     0.700390000000    -0.370767   
O263     O      0.702680000000     0.023000000000     0.743790000000    -0.384091   
O264     O      0.796230000000     0.019270000000     0.752300000000    -0.369624   
O265     O      0.719260000000     0.041590000000     0.499250000000    -0.383286   
O266     O      0.723360000000     0.448140000000     0.499380000000    -0.385929   
O267     O      0.724460000000     0.494150000000     0.545100000000    -0.392508   
O268     O      0.718120000000     0.993420000000     0.951580000000    -0.374447   
O269     O      0.769560000000     0.997660000000     0.947970000000    -0.392246   
O270     O      0.775860000000     0.498310000000     0.541610000000    -0.385197   
O271     O      0.774700000000     0.450210000000     0.993780000000    -0.386045   
O272     O      0.770600000000     0.043860000000     0.993620000000    -0.38788    
O273     O      0.504080000000     0.220500000000     0.542310000000    -0.386139   
O274     O      0.492730000000     0.222460000000     0.948960000000    -0.375969   
O275     O      0.545090000000     0.222580000000     0.989570000000    -0.388822   
O276     O      0.952020000000     0.220120000000     0.499750000000    -0.382527   
O277     O      0.950380000000     0.271650000000     0.498900000000    -0.380022   
O278     O      0.544350000000     0.273580000000     0.996960000000    -0.390608   
O279     O      0.997040000000     0.273840000000     0.950230000000    -0.391443   
O280     O      0.997550000000     0.271630000000     0.543710000000    -0.382284   
O281     O      0.743140000000     0.199460000000     0.522360000000    -0.371484   
O282     O      0.747450000000     0.292900000000     0.522170000000    -0.379389   
O283     O      0.699510000000     0.249020000000     0.519240000000    -0.379115   
O284     O      0.793170000000     0.245180000000     0.525330000000    -0.387099   
O285     O      0.796590000000     0.242760000000     0.973800000000    -0.382389   
O286     O      0.703070000000     0.246540000000     0.967760000000    -0.372911   
O287     O      0.752560000000     0.292530000000     0.970800000000    -0.386808   
O288     O      0.748540000000     0.198780000000     0.971020000000    -0.378141   
O289     O      0.995250000000     0.542950000000     0.219980000000    -0.388103   
O290     O      0.995730000000     0.949180000000     0.220470000000    -0.369721   
O291     O      0.949600000000     0.994550000000     0.223260000000    -0.38515    
O292     O      0.543170000000     0.495620000000     0.216810000000    -0.373733   
O293     O      0.547040000000     0.498670000000     0.268250000000    -0.383999   
O294     O      0.953220000000     0.996340000000     0.274730000000    -0.38689    
O295     O      0.501940000000     0.949850000000     0.271770000000    -0.3878     
O296     O      0.500110000000     0.543390000000     0.271370000000    -0.37692    
O297     O      0.523190000000     0.699760000000     0.250670000000    -0.388735   
O298     O      0.523880000000     0.793250000000     0.246370000000    -0.388417   
O299     O      0.521380000000     0.749580000000     0.294420000000    -0.390395   
O300     O      0.525530000000     0.743480000000     0.200680000000    -0.38541    
O301     O      0.974190000000     0.748810000000     0.198640000000    -0.394888   
O302     O      0.970080000000     0.744010000000     0.291970000000    -0.386614   
O303     O      0.972180000000     0.793180000000     0.246280000000    -0.387827   
O304     O      0.972220000000     0.699610000000     0.242220000000    -0.387881   
O305     O      0.793920000000     0.967820000000     0.249120000000    -0.386392   
O306     O      0.700510000000     0.971550000000     0.241250000000    -0.390369   
O307     O      0.750110000000     0.970230000000     0.199370000000    -0.391847   
O308     O      0.742390000000     0.969360000000     0.292920000000    -0.383621   
O309     O      0.746250000000     0.520760000000     0.293740000000    -0.387214   
O310     O      0.754660000000     0.521600000000     0.200390000000    -0.374025   
O311     O      0.702680000000     0.523000000000     0.243790000000    -0.387395   
O312     O      0.796230000000     0.519270000000     0.252300000000    -0.372752   
O313     O      0.719260000000     0.541590000000     0.999260000000    -0.386371   
O314     O      0.723360000000     0.948150000000     0.999380000000    -0.385919   
O315     O      0.724460000000     0.994150000000     0.045100000000    -0.391469   
O316     O      0.718120000000     0.493420000000     0.451580000000    -0.374168   
O317     O      0.769560000000     0.497660000000     0.447970000000    -0.391618   
O318     O      0.775860000000     0.998310000000     0.041610000000    -0.384599   
O319     O      0.774700000000     0.950210000000     0.493780000000    -0.385401   
O320     O      0.770600000000     0.543860000000     0.493620000000    -0.390302   
O321     O      0.504080000000     0.720500000000     0.042310000000    -0.384934   
O322     O      0.492730000000     0.722460000000     0.448960000000    -0.376189   
O323     O      0.545090000000     0.722580000000     0.489560000000    -0.388642   
O324     O      0.952020000000     0.720120000000     0.999750000000    -0.38489    
O325     O      0.950380000000     0.771650000000     0.998900000000    -0.382576   
O326     O      0.544350000000     0.773580000000     0.496970000000    -0.39009    
O327     O      0.997040000000     0.773840000000     0.450230000000    -0.391613   
O328     O      0.997550000000     0.771630000000     0.043710000000    -0.380871   
O329     O      0.743140000000     0.699460000000     0.022360000000    -0.369723   
O330     O      0.747450000000     0.792890000000     0.022170000000    -0.377906   
O331     O      0.699510000000     0.749020000000     0.019240000000    -0.377494   
O332     O      0.793170000000     0.745170000000     0.025330000000    -0.387431   
O333     O      0.796590000000     0.742760000000     0.473800000000    -0.380839   
O334     O      0.703070000000     0.746540000000     0.467760000000    -0.37336    
O335     O      0.752560000000     0.792530000000     0.470800000000    -0.387205   
O336     O      0.748540000000     0.698780000000     0.471020000000    -0.378653   
O337     O      0.995250000000     0.542950000000     0.719980000000    -0.388153   
O338     O      0.995730000000     0.949180000000     0.720470000000    -0.36975    
O339     O      0.949600000000     0.994550000000     0.723260000000    -0.385185   
O340     O      0.543170000000     0.495620000000     0.716810000000    -0.373778   
O341     O      0.547040000000     0.498670000000     0.768250000000    -0.384016   
O342     O      0.953220000000     0.996340000000     0.774730000000    -0.386914   
O343     O      0.501940000000     0.949850000000     0.771770000000    -0.387821   
O344     O      0.500110000000     0.543390000000     0.771370000000    -0.376935   
O345     O      0.523190000000     0.699760000000     0.750670000000    -0.388743   
O346     O      0.523880000000     0.793250000000     0.746370000000    -0.388427   
O347     O      0.521380000000     0.749580000000     0.794420000000    -0.390398   
O348     O      0.525530000000     0.743480000000     0.700680000000    -0.385428   
O349     O      0.974190000000     0.748810000000     0.698640000000    -0.394911   
O350     O      0.970080000000     0.744010000000     0.791970000000    -0.386617   
O351     O      0.972180000000     0.793180000000     0.746280000000    -0.387834   
O352     O      0.972220000000     0.699610000000     0.742220000000    -0.38789    
O353     O      0.793920000000     0.967820000000     0.749120000000    -0.386399   
O354     O      0.700510000000     0.971550000000     0.741250000000    -0.390373   
O355     O      0.750110000000     0.970230000000     0.699370000000    -0.391864   
O356     O      0.742390000000     0.969360000000     0.792920000000    -0.383623   
O357     O      0.746250000000     0.520760000000     0.793740000000    -0.387215   
O358     O      0.754660000000     0.521600000000     0.700390000000    -0.37404    
O359     O      0.702680000000     0.523000000000     0.743790000000    -0.387407   
O360     O      0.796230000000     0.519270000000     0.752300000000    -0.372754   
O361     O      0.719260000000     0.541590000000     0.499250000000    -0.385945   
O362     O      0.723360000000     0.948150000000     0.499380000000    -0.385466   
O363     O      0.724460000000     0.994150000000     0.545100000000    -0.392877   
O364     O      0.718120000000     0.493420000000     0.951580000000    -0.374025   
O365     O      0.769560000000     0.497660000000     0.947970000000    -0.391434   
O366     O      0.775860000000     0.998310000000     0.541610000000    -0.386048   
O367     O      0.774700000000     0.950210000000     0.993780000000    -0.385602   
O368     O      0.770600000000     0.543860000000     0.993620000000    -0.390479   
O369     O      0.504080000000     0.720500000000     0.542310000000    -0.386328   
O370     O      0.492730000000     0.722460000000     0.948960000000    -0.376035   
O371     O      0.545090000000     0.722580000000     0.989570000000    -0.388899   
O372     O      0.952020000000     0.720120000000     0.499750000000    -0.382594   
O373     O      0.950380000000     0.771650000000     0.498900000000    -0.380062   
O374     O      0.544350000000     0.773580000000     0.996960000000    -0.390643   
O375     O      0.997040000000     0.773840000000     0.950230000000    -0.391478   
O376     O      0.997550000000     0.771630000000     0.543710000000    -0.382204   
O377     O      0.743140000000     0.699460000000     0.522360000000    -0.371425   
O378     O      0.747450000000     0.792890000000     0.522170000000    -0.379539   
O379     O      0.699510000000     0.749020000000     0.519240000000    -0.379138   
O380     O      0.793170000000     0.745170000000     0.525330000000    -0.387139   
O381     O      0.796590000000     0.742760000000     0.973800000000    -0.382403   
O382     O      0.703070000000     0.746540000000     0.967760000000    -0.37291    
O383     O      0.752560000000     0.792530000000     0.970800000000    -0.386806   
O384     O      0.748540000000     0.698780000000     0.971020000000    -0.378143   


