data_structure

_audit_creation_method RASPA-1.0
_audit_creation_date 2023-5-19
_audit_author_name 'Poobodin Mano'

_cell_length_a    43.3067
_cell_length_b    43.2694
_cell_length_c    43.2658
_cell_angle_alpha 90
_cell_angle_beta  90
_cell_angle_gamma 90
_cell_volume      81073.8

_symmetry_cell_setting          triclinic
_symmetry_space_group_name_Hall 'P 1'
_symmetry_space_group_name_H-M  'P 1'
_symmetry_Int_Tables_number     1

_symmetry_equiv_pos_as_xyz 'x,y,z'

loop_
_atom_site_label
_atom_site_type_symbol
_atom_site_fract_x
_atom_site_fract_y
_atom_site_fract_z
_atom_site_charge
C1       C      0.497630000000     0.052920000000     0.243960000000     0.406544   
C2       C      0.998380000000     0.430060000000     0.247630000000     0.395746   
C3       C      0.436210000000     0.991380000000     0.245210000000     0.40676    
C4       C      0.059060000000     0.491830000000     0.246320000000     0.404848   
C5       C      0.999280000000     0.180130000000     0.243310000000     0.415837   
C6       C      0.999360000000     0.302700000000     0.246830000000     0.408853   
C7       C      0.999110000000     0.242250000000     0.184370000000     0.409813   
C8       C      0.999480000000     0.239580000000     0.307000000000     0.409236   
C9       C      0.246260000000     0.993400000000     0.184030000000     0.41103    
C10      C      0.248750000000     0.992950000000     0.307040000000     0.413864   
C11      C      0.309050000000     0.993230000000     0.243770000000     0.418632   
C12      C      0.186160000000     0.993040000000     0.245950000000     0.41426    
C13      C      0.241640000000     0.992830000000     0.056780000000     0.418945   
C14      C      0.243560000000     0.497710000000     0.434150000000     0.405309   
C15      C      0.244210000000     0.057160000000     0.998600000000     0.396916   
C16      C      0.240610000000     0.434520000000     0.491940000000     0.411736   
C17      C      0.997850000000     0.239060000000     0.057150000000     0.409152   
C18      C      0.498740000000     0.239870000000     0.434300000000     0.413841   
C19      C      0.060160000000     0.240020000000     0.995440000000     0.418006   
C20      C      0.437390000000     0.239230000000     0.495740000000     0.413903   
C21      C      0.249130000000     0.184430000000     0.999200000000     0.405555   
C22      C      0.245510000000     0.307300000000     0.991140000000     0.412176   
C23      C      0.187170000000     0.244210000000     0.995380000000     0.398468   
C24      C      0.310210000000     0.244960000000     0.994950000000     0.416479   
C25      C      0.388590000000     0.214710000000     0.487890000000     0.0387548  
C26      C      0.391060000000     0.266550000000     0.004670000000     0.0189835  
C27      C      0.356310000000     0.216860000000     0.486310000000     0.0475918  
C28      C      0.358970000000     0.268230000000     0.004630000000     0.151119   
C29      C      0.139070000000     0.257040000000     0.018050000000     0.0370746  
C30      C      0.140560000000     0.227070000000     0.472480000000     0.0102389  
C31      C      0.106900000000     0.257140000000     0.016880000000     0.0436421  
C32      C      0.108210000000     0.224950000000     0.472510000000     0.134524   
C33      C      0.217170000000     0.385900000000     0.502910000000     0.0377639  
C34      C      0.263870000000     0.388070000000     0.474900000000     0.0109318  
C35      C      0.219180000000     0.353610000000     0.503570000000     0.0444501  
C36      C      0.264990000000     0.355860000000     0.473930000000     0.143272   
C37      C      0.223770000000     0.105850000000     0.984190000000     0.0343069  
C38      C      0.267440000000     0.103560000000     0.016730000000     0.0158659  
C39      C      0.225870000000     0.137970000000     0.983720000000     0.0350078  
C40      C      0.267920000000     0.135990000000     0.018650000000     0.135793   
C41      C      0.223960000000     0.979610000000     0.386180000000     0.0316984  
C42      C      0.267670000000     0.012160000000     0.387210000000     0.013269   
C43      C      0.226960000000     0.976620000000     0.354150000000     0.0385214  
C44      C      0.269560000000     0.011020000000     0.354890000000     0.139524   
C45      C      0.229600000000     0.015790000000     0.136670000000     0.0441766  
C46      C      0.258440000000     0.469530000000     0.136290000000     0.0160348  
C47      C      0.226710000000     0.014150000000     0.104530000000     0.0466977  
C48      C      0.257590000000     0.468900000000     0.103920000000     0.141497   
C49      C      0.014770000000     0.261680000000     0.386590000000     0.0448805  
C50      C      0.482830000000     0.217490000000     0.387000000000     0.0137255  
C51      C      0.016350000000     0.260160000000     0.354400000000     0.0463802  
C52      C      0.482450000000     0.217090000000     0.354600000000     0.136571   
C53      C      0.019450000000     0.223910000000     0.136850000000     0.048598   
C54      C      0.976700000000     0.257750000000     0.136930000000     0.0176715  
C55      C      0.017550000000     0.221570000000     0.104730000000     0.0487007  
C56      C      0.975980000000     0.257260000000     0.104540000000     0.139606   
C57      C      0.106640000000     0.006820000000     0.268970000000     0.0371908  
C58      C      0.106300000000     0.477370000000     0.223050000000     0.0109387  
C59      C      0.138810000000     0.008640000000     0.267520000000     0.0421955  
C60      C      0.138680000000     0.476900000000     0.222810000000     0.136145   
C61      C      0.388700000000     0.012280000000     0.262380000000     0.0416836  
C62      C      0.389040000000     0.472070000000     0.225540000000     0.0126009  
C63      C      0.356600000000     0.014140000000     0.259970000000     0.0474739  
C64      C      0.356620000000     0.471840000000     0.225140000000     0.138626   
C65      C      0.483660000000     0.382080000000     0.270020000000     0.0341133  
C66      C      0.015500000000     0.383030000000     0.225770000000     0.0170578  
C67      C      0.482530000000     0.349820000000     0.268380000000     0.0403918  
C68      C      0.016240000000     0.350670000000     0.225180000000     0.142905   
C69      C      0.014700000000     0.100550000000     0.264600000000     0.04185    
C70      C      0.982650000000     0.100160000000     0.220480000000     0.0100987  
C71      C      0.016360000000     0.132650000000     0.263170000000     0.0508755  
C72      C      0.982270000000     0.132640000000     0.220260000000     0.136827   
C73      C      0.497630000000     0.052920000000     0.743960000000     0.406545   
C74      C      0.998380000000     0.430060000000     0.747630000000     0.39552    
C75      C      0.436210000000     0.991380000000     0.745200000000     0.40677    
C76      C      0.059060000000     0.491830000000     0.746320000000     0.404856   
C77      C      0.999280000000     0.180130000000     0.743310000000     0.415832   
C78      C      0.999360000000     0.302700000000     0.746830000000     0.408895   
C79      C      0.999110000000     0.242250000000     0.684370000000     0.409787   
C80      C      0.999480000000     0.239580000000     0.807000000000     0.409232   
C81      C      0.246260000000     0.993400000000     0.684030000000     0.411002   
C82      C      0.248750000000     0.992950000000     0.807040000000     0.413862   
C83      C      0.309050000000     0.993230000000     0.743770000000     0.418624   
C84      C      0.186160000000     0.993040000000     0.745950000000     0.414254   
C85      C      0.241640000000     0.992830000000     0.556780000000     0.419854   
C86      C      0.243560000000     0.497710000000     0.934150000000     0.404924   
C87      C      0.244210000000     0.057160000000     0.498600000000     0.404079   
C88      C      0.240610000000     0.434520000000     0.991940000000     0.410782   
C89      C      0.997850000000     0.239060000000     0.557150000000     0.409766   
C90      C      0.498740000000     0.239870000000     0.934300000000     0.413556   
C91      C      0.060160000000     0.240020000000     0.495440000000     0.418732   
C92      C      0.437390000000     0.239230000000     0.995740000000     0.413088   
C93      C      0.249130000000     0.184430000000     0.499200000000     0.416605   
C94      C      0.245510000000     0.307300000000     0.491140000000     0.418643   
C95      C      0.187170000000     0.244210000000     0.495380000000     0.404989   
C96      C      0.310210000000     0.244960000000     0.494950000000     0.423192   
C97      C      0.388590000000     0.214710000000     0.987890000000     0.0379005  
C98      C      0.391060000000     0.266550000000     0.504670000000     0.0144011  
C99      C      0.356310000000     0.216860000000     0.986300000000     0.0463183  
C100     C      0.358970000000     0.268230000000     0.504630000000     0.147526   
C101     C      0.139070000000     0.257040000000     0.518050000000     0.0333092  
C102     C      0.140560000000     0.227070000000     0.972480000000     0.00928727 
C103     C      0.106900000000     0.257140000000     0.516880000000     0.03917    
C104     C      0.108210000000     0.224950000000     0.972510000000     0.133871   
C105     C      0.217170000000     0.385900000000     0.002910000000     0.0422574  
C106     C      0.263870000000     0.388070000000     0.974900000000     0.0101902  
C107     C      0.219180000000     0.353610000000     0.003570000000     0.0483417  
C108     C      0.264990000000     0.355860000000     0.973930000000     0.142301   
C109     C      0.223770000000     0.105850000000     0.484200000000     0.033529   
C110     C      0.267440000000     0.103560000000     0.516730000000     0.0104308  
C111     C      0.225870000000     0.137970000000     0.483720000000     0.0409695  
C112     C      0.267920000000     0.135990000000     0.518650000000     0.136301   
C113     C      0.223960000000     0.979610000000     0.886180000000     0.0316427  
C114     C      0.267670000000     0.012160000000     0.887210000000     0.0132106  
C115     C      0.226960000000     0.976620000000     0.854150000000     0.0384739  
C116     C      0.269560000000     0.011020000000     0.854890000000     0.139462   
C117     C      0.229600000000     0.015790000000     0.636670000000     0.044042   
C118     C      0.258440000000     0.469530000000     0.636300000000     0.0160471  
C119     C      0.226710000000     0.014150000000     0.604530000000     0.0465624  
C120     C      0.257590000000     0.468900000000     0.603920000000     0.141223   
C121     C      0.014770000000     0.261680000000     0.886590000000     0.0448119  
C122     C      0.482830000000     0.217490000000     0.887000000000     0.0136727  
C123     C      0.016350000000     0.260160000000     0.854400000000     0.0463381  
C124     C      0.482450000000     0.217090000000     0.854600000000     0.136525   
C125     C      0.019450000000     0.223910000000     0.636850000000     0.0484703  
C126     C      0.976700000000     0.257750000000     0.636930000000     0.0176321  
C127     C      0.017550000000     0.221570000000     0.604730000000     0.0485113  
C128     C      0.975980000000     0.257260000000     0.604540000000     0.139299   
C129     C      0.106640000000     0.006820000000     0.768980000000     0.0371421  
C130     C      0.106300000000     0.477370000000     0.723050000000     0.0108443  
C131     C      0.138810000000     0.008640000000     0.767520000000     0.0421868  
C132     C      0.138680000000     0.476900000000     0.722810000000     0.136104   
C133     C      0.388700000000     0.012280000000     0.762380000000     0.0416657  
C134     C      0.389040000000     0.472070000000     0.725540000000     0.0125566  
C135     C      0.356600000000     0.014140000000     0.759970000000     0.0474403  
C136     C      0.356620000000     0.471840000000     0.725140000000     0.13857    
C137     C      0.483660000000     0.382080000000     0.770020000000     0.0340719  
C138     C      0.015500000000     0.383030000000     0.725770000000     0.0170345  
C139     C      0.482530000000     0.349820000000     0.768380000000     0.0403687  
C140     C      0.016240000000     0.350670000000     0.725180000000     0.142866   
C141     C      0.014700000000     0.100550000000     0.764600000000     0.0417625  
C142     C      0.982650000000     0.100160000000     0.720480000000     0.0101229  
C143     C      0.016360000000     0.132650000000     0.763170000000     0.0508772  
C144     C      0.982270000000     0.132640000000     0.720260000000     0.136733   
C145     C      0.497630000000     0.552920000000     0.243960000000     0.407033   
C146     C      0.998380000000     0.930060000000     0.247630000000     0.395519   
C147     C      0.436210000000     0.491380000000     0.245210000000     0.407319   
C148     C      0.059060000000     0.991830000000     0.246320000000     0.404252   
C149     C      0.999280000000     0.680130000000     0.243310000000     0.415868   
C150     C      0.999360000000     0.802700000000     0.246830000000     0.408847   
C151     C      0.999110000000     0.742250000000     0.184370000000     0.409806   
C152     C      0.999480000000     0.739580000000     0.307000000000     0.409223   
C153     C      0.246260000000     0.493400000000     0.184030000000     0.416317   
C154     C      0.248750000000     0.492950000000     0.307040000000     0.419516   
C155     C      0.309050000000     0.493230000000     0.243770000000     0.424168   
C156     C      0.186160000000     0.493040000000     0.245950000000     0.419461   
C157     C      0.241640000000     0.492830000000     0.056780000000     0.419619   
C158     C      0.243560000000     0.997710000000     0.434150000000     0.39916    
C159     C      0.244210000000     0.557160000000     0.998600000000     0.397585   
C160     C      0.240610000000     0.934520000000     0.491940000000     0.411412   
C161     C      0.997850000000     0.739060000000     0.057150000000     0.40917    
C162     C      0.498740000000     0.739870000000     0.434300000000     0.413877   
C163     C      0.060160000000     0.740020000000     0.995440000000     0.418035   
C164     C      0.437390000000     0.739230000000     0.495740000000     0.413936   
C165     C      0.249130000000     0.684440000000     0.999200000000     0.405557   
C166     C      0.245510000000     0.807300000000     0.991140000000     0.412202   
C167     C      0.187170000000     0.744210000000     0.995380000000     0.398449   
C168     C      0.310210000000     0.744960000000     0.994950000000     0.416476   
C169     C      0.388590000000     0.714710000000     0.487890000000     0.0387253  
C170     C      0.391060000000     0.766550000000     0.004670000000     0.0189351  
C171     C      0.356310000000     0.716860000000     0.486310000000     0.0475605  
C172     C      0.358970000000     0.768230000000     0.004630000000     0.151121   
C173     C      0.139070000000     0.757040000000     0.018050000000     0.0370452  
C174     C      0.140560000000     0.727070000000     0.472480000000     0.0102159  
C175     C      0.106900000000     0.757140000000     0.016880000000     0.0436088  
C176     C      0.108210000000     0.724950000000     0.472510000000     0.134446   
C177     C      0.217170000000     0.885900000000     0.502910000000     0.0377199  
C178     C      0.263870000000     0.888070000000     0.474900000000     0.0108849  
C179     C      0.219180000000     0.853610000000     0.503570000000     0.0444233  
C180     C      0.264990000000     0.855860000000     0.473930000000     0.143216   
C181     C      0.223770000000     0.605850000000     0.984190000000     0.0341807  
C182     C      0.267440000000     0.603560000000     0.016730000000     0.0157923  
C183     C      0.225870000000     0.637960000000     0.983720000000     0.0348092  
C184     C      0.267920000000     0.635990000000     0.018650000000     0.135607   
C185     C      0.223960000000     0.479610000000     0.386180000000     0.0325811  
C186     C      0.267670000000     0.512160000000     0.387210000000     0.0099533  
C187     C      0.226960000000     0.476620000000     0.354150000000     0.0393896  
C188     C      0.269560000000     0.511020000000     0.354890000000     0.136508   
C189     C      0.229600000000     0.515790000000     0.136670000000     0.0408464  
C190     C      0.258440000000     0.969530000000     0.136290000000     0.0153038  
C191     C      0.226710000000     0.514150000000     0.104530000000     0.0428872  
C192     C      0.257590000000     0.968900000000     0.103920000000     0.141019   
C193     C      0.014770000000     0.761680000000     0.386590000000     0.0448649  
C194     C      0.482830000000     0.717490000000     0.387000000000     0.0137044  
C195     C      0.016350000000     0.760160000000     0.354400000000     0.0463555  
C196     C      0.482450000000     0.717090000000     0.354600000000     0.136513   
C197     C      0.019450000000     0.723910000000     0.136850000000     0.0485741  
C198     C      0.976700000000     0.757750000000     0.136930000000     0.0176601  
C199     C      0.017550000000     0.721570000000     0.104730000000     0.0486522  
C200     C      0.975980000000     0.757260000000     0.104540000000     0.139567   
C201     C      0.106640000000     0.506820000000     0.268970000000     0.033346   
C202     C      0.106300000000     0.977370000000     0.223050000000     0.0103819  
C203     C      0.138810000000     0.508640000000     0.267520000000     0.0389217  
C204     C      0.138680000000     0.976900000000     0.222810000000     0.135273   
C205     C      0.388700000000     0.512280000000     0.262380000000     0.0379359  
C206     C      0.389040000000     0.972070000000     0.225540000000     0.012074   
C207     C      0.356600000000     0.514140000000     0.259970000000     0.0443217  
C208     C      0.356620000000     0.971840000000     0.225140000000     0.137813   
C209     C      0.483660000000     0.882080000000     0.270020000000     0.0340538  
C210     C      0.015500000000     0.883030000000     0.225770000000     0.0170097  
C211     C      0.482530000000     0.849820000000     0.268380000000     0.0403545  
C212     C      0.016240000000     0.850670000000     0.225180000000     0.142876   
C213     C      0.014700000000     0.600550000000     0.264600000000     0.0416874  
C214     C      0.982650000000     0.600160000000     0.220480000000     0.00993699 
C215     C      0.016360000000     0.632650000000     0.263170000000     0.0507454  
C216     C      0.982270000000     0.632640000000     0.220260000000     0.136652   
C217     C      0.497630000000     0.552920000000     0.743960000000     0.407036   
C218     C      0.998380000000     0.930060000000     0.747630000000     0.395292   
C219     C      0.436210000000     0.491380000000     0.745200000000     0.407331   
C220     C      0.059060000000     0.991830000000     0.746320000000     0.40426    
C221     C      0.999280000000     0.680130000000     0.743310000000     0.415863   
C222     C      0.999360000000     0.802700000000     0.746830000000     0.408889   
C223     C      0.999110000000     0.742250000000     0.684370000000     0.40978    
C224     C      0.999480000000     0.739580000000     0.807000000000     0.409219   
C225     C      0.246260000000     0.493400000000     0.684030000000     0.416298   
C226     C      0.248750000000     0.492950000000     0.807040000000     0.419517   
C227     C      0.309050000000     0.493230000000     0.743770000000     0.424167   
C228     C      0.186160000000     0.493040000000     0.745950000000     0.419461   
C229     C      0.241640000000     0.492830000000     0.556780000000     0.420531   
C230     C      0.243560000000     0.997710000000     0.934150000000     0.398781   
C231     C      0.244210000000     0.557160000000     0.498600000000     0.404777   
C232     C      0.240610000000     0.934520000000     0.991940000000     0.410461   
C233     C      0.997850000000     0.739060000000     0.557150000000     0.409785   
C234     C      0.498740000000     0.739870000000     0.934300000000     0.413591   
C235     C      0.060160000000     0.740020000000     0.495440000000     0.418762   
C236     C      0.437390000000     0.739230000000     0.995740000000     0.41312    
C237     C      0.249130000000     0.684440000000     0.499200000000     0.416628   
C238     C      0.245510000000     0.807300000000     0.491140000000     0.418673   
C239     C      0.187170000000     0.744210000000     0.495380000000     0.404977   
C240     C      0.310210000000     0.744960000000     0.494950000000     0.423195   
C241     C      0.388590000000     0.714710000000     0.987890000000     0.0378702  
C242     C      0.391060000000     0.766550000000     0.504670000000     0.0143458  
C243     C      0.356310000000     0.716860000000     0.986300000000     0.0462857  
C244     C      0.358970000000     0.768230000000     0.504630000000     0.147523   
C245     C      0.139070000000     0.757040000000     0.518050000000     0.0332745  
C246     C      0.140560000000     0.727070000000     0.972480000000     0.00926342 
C247     C      0.106900000000     0.757140000000     0.516880000000     0.0391305  
C248     C      0.108210000000     0.724950000000     0.972510000000     0.133793   
C249     C      0.217170000000     0.885900000000     0.002910000000     0.0422117  
C250     C      0.263870000000     0.888070000000     0.974900000000     0.0101438  
C251     C      0.219180000000     0.853610000000     0.003570000000     0.0483173  
C252     C      0.264990000000     0.855860000000     0.973930000000     0.142245   
C253     C      0.223770000000     0.605850000000     0.484200000000     0.033399   
C254     C      0.267440000000     0.603560000000     0.516730000000     0.0103397  
C255     C      0.225870000000     0.637960000000     0.483720000000     0.0407832  
C256     C      0.267920000000     0.635990000000     0.518650000000     0.136115   
C257     C      0.223960000000     0.479610000000     0.886180000000     0.0325248  
C258     C      0.267670000000     0.512160000000     0.887210000000     0.00989512 
C259     C      0.226960000000     0.476620000000     0.854150000000     0.0393419  
C260     C      0.269560000000     0.511020000000     0.854890000000     0.136443   
C261     C      0.229600000000     0.515790000000     0.636670000000     0.0407031  
C262     C      0.258440000000     0.969530000000     0.636300000000     0.0153149  
C263     C      0.226710000000     0.514150000000     0.604530000000     0.0427361  
C264     C      0.257590000000     0.968900000000     0.603920000000     0.140743   
C265     C      0.014770000000     0.761680000000     0.886590000000     0.0447963  
C266     C      0.482830000000     0.717490000000     0.887000000000     0.0136516  
C267     C      0.016350000000     0.760160000000     0.854400000000     0.0463134  
C268     C      0.482450000000     0.717090000000     0.854600000000     0.136466   
C269     C      0.019450000000     0.723910000000     0.636850000000     0.048446   
C270     C      0.976700000000     0.757750000000     0.636930000000     0.0176206  
C271     C      0.017550000000     0.721570000000     0.604730000000     0.0484624  
C272     C      0.975980000000     0.757260000000     0.604540000000     0.139259   
C273     C      0.106640000000     0.506820000000     0.768980000000     0.0332909  
C274     C      0.106300000000     0.977370000000     0.723050000000     0.0102868  
C275     C      0.138810000000     0.508640000000     0.767520000000     0.0389073  
C276     C      0.138680000000     0.976900000000     0.722810000000     0.135232   
C277     C      0.388700000000     0.512280000000     0.762380000000     0.0379118  
C278     C      0.389040000000     0.972070000000     0.725540000000     0.0120293  
C279     C      0.356600000000     0.514140000000     0.759970000000     0.0442826  
C280     C      0.356620000000     0.971840000000     0.725140000000     0.137756   
C281     C      0.483660000000     0.882080000000     0.770020000000     0.0340125  
C282     C      0.015500000000     0.883030000000     0.725770000000     0.0169863  
C283     C      0.482530000000     0.849820000000     0.768380000000     0.0403315  
C284     C      0.016240000000     0.850670000000     0.725180000000     0.142837   
C285     C      0.014700000000     0.600550000000     0.764600000000     0.0415995  
C286     C      0.982650000000     0.600160000000     0.720480000000     0.00996095 
C287     C      0.016360000000     0.632650000000     0.763170000000     0.0507469  
C288     C      0.982270000000     0.632640000000     0.720260000000     0.136557   
C289     C      0.997630000000     0.052920000000     0.243960000000     0.3955     
C290     C      0.498380000000     0.430060000000     0.247630000000     0.406867   
C291     C      0.936210000000     0.991380000000     0.245210000000     0.40606    
C292     C      0.559060000000     0.491830000000     0.246320000000     0.406267   
C293     C      0.499280000000     0.180130000000     0.243310000000     0.42534    
C294     C      0.499360000000     0.302700000000     0.246830000000     0.418781   
C295     C      0.499110000000     0.242250000000     0.184370000000     0.419584   
C296     C      0.499480000000     0.239580000000     0.307000000000     0.418877   
C297     C      0.746260000000     0.993400000000     0.184030000000     0.411032   
C298     C      0.748750000000     0.992950000000     0.307040000000     0.413853   
C299     C      0.809050000000     0.993230000000     0.243770000000     0.418564   
C300     C      0.686160000000     0.993040000000     0.245950000000     0.414209   
C301     C      0.741640000000     0.992830000000     0.056780000000     0.418963   
C302     C      0.743560000000     0.497710000000     0.434150000000     0.405087   
C303     C      0.744210000000     0.057160000000     0.998600000000     0.39692    
C304     C      0.740610000000     0.434520000000     0.491940000000     0.411754   
C305     C      0.497850000000     0.239060000000     0.057150000000     0.420163   
C306     C      0.998740000000     0.239870000000     0.434300000000     0.402686   
C307     C      0.560160000000     0.240020000000     0.995440000000     0.419732   
C308     C      0.937400000000     0.239230000000     0.495740000000     0.413048   
C309     C      0.749130000000     0.184430000000     0.999200000000     0.405533   
C310     C      0.745510000000     0.307300000000     0.991140000000     0.412167   
C311     C      0.687170000000     0.244210000000     0.995380000000     0.398384   
C312     C      0.810210000000     0.244960000000     0.994950000000     0.416515   
C313     C      0.888590000000     0.214710000000     0.487890000000     0.0385948  
C314     C      0.891060000000     0.266550000000     0.004670000000     0.0188405  
C315     C      0.856310000000     0.216860000000     0.486310000000     0.0475531  
C316     C      0.858970000000     0.268230000000     0.004630000000     0.151062   
C317     C      0.639070000000     0.257040000000     0.018050000000     0.0368511  
C318     C      0.640560000000     0.227070000000     0.472480000000     0.0101535  
C319     C      0.606900000000     0.257140000000     0.016880000000     0.0434922  
C320     C      0.608210000000     0.224950000000     0.472510000000     0.134202   
C321     C      0.717170000000     0.385900000000     0.502910000000     0.0376898  
C322     C      0.763870000000     0.388070000000     0.474900000000     0.0109051  
C323     C      0.719180000000     0.353610000000     0.503570000000     0.0443713  
C324     C      0.764990000000     0.355860000000     0.473930000000     0.143217   
C325     C      0.723770000000     0.105850000000     0.984190000000     0.0342402  
C326     C      0.767440000000     0.103560000000     0.016730000000     0.0158465  
C327     C      0.725870000000     0.137970000000     0.983720000000     0.0349278  
C328     C      0.767920000000     0.135990000000     0.018650000000     0.135735   
C329     C      0.723960000000     0.979610000000     0.386180000000     0.0316301  
C330     C      0.767670000000     0.012160000000     0.387210000000     0.0132317  
C331     C      0.726960000000     0.976620000000     0.354150000000     0.0384428  
C332     C      0.769560000000     0.011020000000     0.354890000000     0.139469   
C333     C      0.729600000000     0.015790000000     0.136670000000     0.0441313  
C334     C      0.758440000000     0.469530000000     0.136290000000     0.0160119  
C335     C      0.726710000000     0.014150000000     0.104530000000     0.0466115  
C336     C      0.757590000000     0.468900000000     0.103920000000     0.141421   
C337     C      0.514770000000     0.261680000000     0.386590000000     0.0390936  
C338     C      0.982830000000     0.217490000000     0.387000000000     0.0122307  
C339     C      0.516350000000     0.260160000000     0.354400000000     0.040494   
C340     C      0.982450000000     0.217090000000     0.354600000000     0.135154   
C341     C      0.519450000000     0.223910000000     0.136850000000     0.0427301  
C342     C      0.476710000000     0.257750000000     0.136930000000     0.0192508  
C343     C      0.517560000000     0.221570000000     0.104730000000     0.0427387  
C344     C      0.475980000000     0.257260000000     0.104540000000     0.140949   
C345     C      0.606640000000     0.006820000000     0.268970000000     0.0369225  
C346     C      0.606300000000     0.477370000000     0.223050000000     0.0107018  
C347     C      0.638810000000     0.008640000000     0.267520000000     0.0419531  
C348     C      0.638680000000     0.476900000000     0.222810000000     0.135869   
C349     C      0.888700000000     0.012280000000     0.262380000000     0.041576   
C350     C      0.889050000000     0.472070000000     0.225540000000     0.0125563  
C351     C      0.856600000000     0.014140000000     0.259970000000     0.0474001  
C352     C      0.856620000000     0.471840000000     0.225140000000     0.138504   
C353     C      0.983650000000     0.382080000000     0.270020000000     0.032475   
C354     C      0.515500000000     0.383030000000     0.225770000000     0.0112294  
C355     C      0.982530000000     0.349820000000     0.268380000000     0.038901   
C356     C      0.516240000000     0.350670000000     0.225180000000     0.13753    
C357     C      0.514700000000     0.100550000000     0.264600000000     0.0359845  
C358     C      0.482660000000     0.100160000000     0.220480000000     0.0115699  
C359     C      0.516360000000     0.132650000000     0.263170000000     0.0448059  
C360     C      0.482270000000     0.132640000000     0.220260000000     0.138199   
C361     C      0.997630000000     0.052920000000     0.743960000000     0.395493   
C362     C      0.498380000000     0.430060000000     0.747630000000     0.406651   
C363     C      0.936210000000     0.991380000000     0.745200000000     0.40607    
C364     C      0.559060000000     0.491830000000     0.746320000000     0.406276   
C365     C      0.499280000000     0.180130000000     0.743310000000     0.425343   
C366     C      0.499360000000     0.302700000000     0.746830000000     0.418832   
C367     C      0.499110000000     0.242250000000     0.684370000000     0.419572   
C368     C      0.499480000000     0.239580000000     0.807000000000     0.418875   
C369     C      0.746260000000     0.993400000000     0.684030000000     0.411003   
C370     C      0.748750000000     0.992950000000     0.807040000000     0.41385    
C371     C      0.809050000000     0.993230000000     0.743770000000     0.418556   
C372     C      0.686160000000     0.993040000000     0.745950000000     0.414202   
C373     C      0.741640000000     0.992830000000     0.556780000000     0.419873   
C374     C      0.743560000000     0.497710000000     0.934150000000     0.404702   
C375     C      0.744210000000     0.057160000000     0.498600000000     0.404091   
C376     C      0.740610000000     0.434520000000     0.991940000000     0.4108     
C377     C      0.497850000000     0.239060000000     0.557150000000     0.420817   
C378     C      0.998740000000     0.239870000000     0.934300000000     0.402415   
C379     C      0.560160000000     0.240020000000     0.495440000000     0.420463   
C380     C      0.937400000000     0.239230000000     0.995740000000     0.412236   
C381     C      0.749130000000     0.184430000000     0.499200000000     0.416595   
C382     C      0.745510000000     0.307300000000     0.491140000000     0.418643   
C383     C      0.687170000000     0.244210000000     0.495380000000     0.404915   
C384     C      0.810210000000     0.244960000000     0.494950000000     0.423232   
C385     C      0.888590000000     0.214710000000     0.987890000000     0.0377429  
C386     C      0.891060000000     0.266550000000     0.504670000000     0.0142566  
C387     C      0.856310000000     0.216860000000     0.986300000000     0.0462795  
C388     C      0.858970000000     0.268230000000     0.504630000000     0.147466   
C389     C      0.639070000000     0.257040000000     0.518050000000     0.0330755  
C390     C      0.640560000000     0.227070000000     0.972480000000     0.00919995 
C391     C      0.606900000000     0.257140000000     0.516880000000     0.0390036  
C392     C      0.608210000000     0.224950000000     0.972510000000     0.133548   
C393     C      0.717170000000     0.385900000000     0.002910000000     0.0421919  
C394     C      0.763870000000     0.388070000000     0.974900000000     0.010163   
C395     C      0.719180000000     0.353610000000     0.003570000000     0.0482704  
C396     C      0.764990000000     0.355860000000     0.973930000000     0.142246   
C397     C      0.723770000000     0.105850000000     0.484200000000     0.0334602  
C398     C      0.767440000000     0.103560000000     0.516730000000     0.0104028  
C399     C      0.725870000000     0.137970000000     0.483720000000     0.0408974  
C400     C      0.767920000000     0.135990000000     0.518650000000     0.136243   
C401     C      0.723960000000     0.979610000000     0.886180000000     0.0315744  
C402     C      0.767670000000     0.012160000000     0.887210000000     0.0131733  
C403     C      0.726960000000     0.976620000000     0.854150000000     0.0383952  
C404     C      0.769560000000     0.011020000000     0.854890000000     0.139407   
C405     C      0.729600000000     0.015790000000     0.636670000000     0.0439964  
C406     C      0.758440000000     0.469530000000     0.636300000000     0.0160241  
C407     C      0.726710000000     0.014150000000     0.604530000000     0.0464758  
C408     C      0.757590000000     0.468900000000     0.603920000000     0.141146   
C409     C      0.514770000000     0.261680000000     0.886590000000     0.0390285  
C410     C      0.982830000000     0.217490000000     0.887000000000     0.0121792  
C411     C      0.516350000000     0.260160000000     0.854400000000     0.0404506  
C412     C      0.982450000000     0.217090000000     0.854600000000     0.135108   
C413     C      0.519450000000     0.223910000000     0.636850000000     0.0425902  
C414     C      0.476710000000     0.257750000000     0.636930000000     0.0192142  
C415     C      0.517560000000     0.221570000000     0.604730000000     0.0425304  
C416     C      0.475980000000     0.257260000000     0.604540000000     0.140644   
C417     C      0.606640000000     0.006820000000     0.768980000000     0.0368738  
C418     C      0.606300000000     0.477370000000     0.723050000000     0.0106069  
C419     C      0.638810000000     0.008640000000     0.767520000000     0.041944   
C420     C      0.638680000000     0.476900000000     0.722810000000     0.135828   
C421     C      0.888700000000     0.012280000000     0.762380000000     0.0415581  
C422     C      0.889050000000     0.472070000000     0.725540000000     0.012512   
C423     C      0.856600000000     0.014140000000     0.759970000000     0.0473665  
C424     C      0.856620000000     0.471840000000     0.725140000000     0.138447   
C425     C      0.983650000000     0.382080000000     0.770020000000     0.032433   
C426     C      0.515500000000     0.383030000000     0.725770000000     0.0112     
C427     C      0.982530000000     0.349820000000     0.768380000000     0.0388772  
C428     C      0.516240000000     0.350670000000     0.725180000000     0.137484   
C429     C      0.514700000000     0.100550000000     0.764600000000     0.0358928  
C430     C      0.482660000000     0.100160000000     0.720480000000     0.0115954  
C431     C      0.516360000000     0.132650000000     0.763170000000     0.0448005  
C432     C      0.482270000000     0.132640000000     0.720260000000     0.138106   
C433     C      0.997630000000     0.552920000000     0.243960000000     0.395952   
C434     C      0.498380000000     0.930060000000     0.247630000000     0.406624   
C435     C      0.936210000000     0.491380000000     0.245210000000     0.406617   
C436     C      0.559060000000     0.991830000000     0.246320000000     0.405666   
C437     C      0.499280000000     0.680130000000     0.243310000000     0.425385   
C438     C      0.499360000000     0.802700000000     0.246830000000     0.418778   
C439     C      0.499110000000     0.742250000000     0.184370000000     0.419585   
C440     C      0.499480000000     0.739580000000     0.307000000000     0.418871   
C441     C      0.746260000000     0.493400000000     0.184030000000     0.416325   
C442     C      0.748750000000     0.492950000000     0.307040000000     0.419511   
C443     C      0.809050000000     0.493230000000     0.243770000000     0.424101   
C444     C      0.686160000000     0.493040000000     0.245950000000     0.41942    
C445     C      0.741640000000     0.492830000000     0.056780000000     0.419637   
C446     C      0.743560000000     0.997710000000     0.434150000000     0.398932   
C447     C      0.744210000000     0.557160000000     0.998600000000     0.39759    
C448     C      0.740610000000     0.934520000000     0.491940000000     0.41143    
C449     C      0.497850000000     0.739060000000     0.057150000000     0.420195   
C450     C      0.998740000000     0.739870000000     0.434300000000     0.402714   
C451     C      0.560160000000     0.740020000000     0.995440000000     0.419763   
C452     C      0.937400000000     0.739230000000     0.495740000000     0.41308    
C453     C      0.749130000000     0.684440000000     0.999200000000     0.405534   
C454     C      0.745510000000     0.807300000000     0.991140000000     0.412193   
C455     C      0.687170000000     0.744210000000     0.995380000000     0.398365   
C456     C      0.810210000000     0.744960000000     0.994950000000     0.416512   
C457     C      0.888590000000     0.714710000000     0.487890000000     0.0385651  
C458     C      0.891060000000     0.766550000000     0.004670000000     0.018792   
C459     C      0.856310000000     0.716860000000     0.486310000000     0.0475217  
C460     C      0.858970000000     0.768230000000     0.004630000000     0.151064   
C461     C      0.639070000000     0.757040000000     0.018050000000     0.0368214  
C462     C      0.640560000000     0.727070000000     0.472480000000     0.0101303  
C463     C      0.606900000000     0.757140000000     0.016880000000     0.0434587  
C464     C      0.608210000000     0.724950000000     0.472510000000     0.134123   
C465     C      0.717170000000     0.885900000000     0.502910000000     0.0376457  
C466     C      0.763870000000     0.888070000000     0.474900000000     0.0108582  
C467     C      0.719180000000     0.853610000000     0.503570000000     0.0443445  
C468     C      0.764990000000     0.855860000000     0.473930000000     0.143162   
C469     C      0.723770000000     0.605850000000     0.984190000000     0.0341136  
C470     C      0.767440000000     0.603560000000     0.016730000000     0.0157726  
C471     C      0.725870000000     0.637960000000     0.983720000000     0.0347288  
C472     C      0.767920000000     0.635990000000     0.018650000000     0.135549   
C473     C      0.723960000000     0.479610000000     0.386180000000     0.0325131  
C474     C      0.767670000000     0.512160000000     0.387210000000     0.00990983 
C475     C      0.726960000000     0.476620000000     0.354150000000     0.0393119  
C476     C      0.769560000000     0.511020000000     0.354890000000     0.136447   
C477     C      0.729600000000     0.515790000000     0.136670000000     0.0407947  
C478     C      0.758440000000     0.969530000000     0.136290000000     0.0152803  
C479     C      0.726710000000     0.514150000000     0.104530000000     0.0427931  
C480     C      0.757590000000     0.968900000000     0.103920000000     0.140942   
C481     C      0.514770000000     0.761680000000     0.386590000000     0.0390721  
C482     C      0.982830000000     0.717490000000     0.387000000000     0.0122085  
C483     C      0.516350000000     0.760160000000     0.354400000000     0.0404634  
C484     C      0.982450000000     0.717090000000     0.354600000000     0.135095   
C485     C      0.519450000000     0.723910000000     0.136850000000     0.0426996  
C486     C      0.476710000000     0.757750000000     0.136930000000     0.0192402  
C487     C      0.517560000000     0.721570000000     0.104730000000     0.0426836  
C488     C      0.475980000000     0.757260000000     0.104540000000     0.14091    
C489     C      0.606640000000     0.506820000000     0.268970000000     0.0330611  
C490     C      0.606300000000     0.977370000000     0.223050000000     0.0101446  
C491     C      0.638810000000     0.508640000000     0.267520000000     0.0386704  
C492     C      0.638680000000     0.976900000000     0.222810000000     0.134997   
C493     C      0.888700000000     0.512280000000     0.262380000000     0.0378273  
C494     C      0.889050000000     0.972070000000     0.225540000000     0.0120303  
C495     C      0.856600000000     0.514140000000     0.259970000000     0.0442442  
C496     C      0.856620000000     0.971840000000     0.225140000000     0.137691   
C497     C      0.983650000000     0.882080000000     0.270020000000     0.0324169  
C498     C      0.515500000000     0.883030000000     0.225770000000     0.0111854  
C499     C      0.982530000000     0.849820000000     0.268380000000     0.0388643  
C500     C      0.516240000000     0.850670000000     0.225180000000     0.137499   
C501     C      0.514700000000     0.600550000000     0.264600000000     0.0358037  
C502     C      0.482660000000     0.600160000000     0.220480000000     0.0114111  
C503     C      0.516360000000     0.632650000000     0.263170000000     0.0446627  
C504     C      0.482270000000     0.632640000000     0.220260000000     0.138027   
C505     C      0.997630000000     0.552920000000     0.743960000000     0.395945   
C506     C      0.498380000000     0.930060000000     0.747630000000     0.406408   
C507     C      0.936210000000     0.491380000000     0.745200000000     0.406628   
C508     C      0.559060000000     0.991830000000     0.746320000000     0.405676   
C509     C      0.499280000000     0.680130000000     0.743310000000     0.425388   
C510     C      0.499360000000     0.802700000000     0.746830000000     0.418829   
C511     C      0.499110000000     0.742250000000     0.684370000000     0.419573   
C512     C      0.499480000000     0.739580000000     0.807000000000     0.41887    
C513     C      0.746260000000     0.493400000000     0.684030000000     0.416306   
C514     C      0.748750000000     0.492950000000     0.807040000000     0.419512   
C515     C      0.809050000000     0.493230000000     0.743770000000     0.4241     
C516     C      0.686160000000     0.493040000000     0.745950000000     0.419419   
C517     C      0.741640000000     0.492830000000     0.556780000000     0.42055    
C518     C      0.743560000000     0.997710000000     0.934150000000     0.398553   
C519     C      0.744210000000     0.557160000000     0.498600000000     0.40479    
C520     C      0.740610000000     0.934520000000     0.991940000000     0.410478   
C521     C      0.497850000000     0.739060000000     0.557150000000     0.420849   
C522     C      0.998740000000     0.739870000000     0.934300000000     0.402443   
C523     C      0.560160000000     0.740020000000     0.495440000000     0.420494   
C524     C      0.937400000000     0.739230000000     0.995740000000     0.412267   
C525     C      0.749130000000     0.684440000000     0.499200000000     0.416617   
C526     C      0.745510000000     0.807300000000     0.491140000000     0.418672   
C527     C      0.687170000000     0.744210000000     0.495380000000     0.404902   
C528     C      0.810210000000     0.744960000000     0.494950000000     0.423235   
C529     C      0.888590000000     0.714710000000     0.987890000000     0.0377124  
C530     C      0.891060000000     0.766550000000     0.504670000000     0.0142012  
C531     C      0.856310000000     0.716860000000     0.986300000000     0.0462468  
C532     C      0.858970000000     0.768230000000     0.504630000000     0.147463   
C533     C      0.639070000000     0.757040000000     0.518050000000     0.0330405  
C534     C      0.640560000000     0.727070000000     0.972480000000     0.00917599 
C535     C      0.606900000000     0.757140000000     0.516880000000     0.0389638  
C536     C      0.608210000000     0.724950000000     0.972510000000     0.133469   
C537     C      0.717170000000     0.885900000000     0.002910000000     0.0421462  
C538     C      0.763870000000     0.888070000000     0.974900000000     0.0101165  
C539     C      0.719180000000     0.853610000000     0.003570000000     0.0482461  
C540     C      0.764990000000     0.855860000000     0.973930000000     0.14219    
C541     C      0.723770000000     0.605850000000     0.484200000000     0.0333298  
C542     C      0.767440000000     0.603560000000     0.516730000000     0.0103114  
C543     C      0.725870000000     0.637960000000     0.483720000000     0.0407106  
C544     C      0.767920000000     0.635990000000     0.518650000000     0.136057   
C545     C      0.723960000000     0.479610000000     0.886180000000     0.0324568  
C546     C      0.767670000000     0.512160000000     0.887210000000     0.00985166 
C547     C      0.726960000000     0.476620000000     0.854150000000     0.0392642  
C548     C      0.769560000000     0.511020000000     0.854890000000     0.136383   
C549     C      0.729600000000     0.515790000000     0.636670000000     0.040651   
C550     C      0.758440000000     0.969530000000     0.636300000000     0.0152913  
C551     C      0.726710000000     0.514150000000     0.604530000000     0.0426415  
C552     C      0.757590000000     0.968900000000     0.603920000000     0.140666   
C553     C      0.514770000000     0.761680000000     0.886590000000     0.0390071  
C554     C      0.982830000000     0.717490000000     0.887000000000     0.012157   
C555     C      0.516350000000     0.760160000000     0.854400000000     0.04042    
C556     C      0.982450000000     0.717090000000     0.854600000000     0.135049   
C557     C      0.519450000000     0.723910000000     0.636850000000     0.0425594  
C558     C      0.476710000000     0.757750000000     0.636930000000     0.0192034  
C559     C      0.517560000000     0.721570000000     0.604730000000     0.0424747  
C560     C      0.475980000000     0.757260000000     0.604540000000     0.140605   
C561     C      0.606640000000     0.506820000000     0.768980000000     0.033006   
C562     C      0.606300000000     0.977370000000     0.723050000000     0.010049   
C563     C      0.638810000000     0.508640000000     0.767520000000     0.0386556  
C564     C      0.638680000000     0.976900000000     0.722810000000     0.134955   
C565     C      0.888700000000     0.512280000000     0.762380000000     0.0378032  
C566     C      0.889050000000     0.972070000000     0.725540000000     0.0119855  
C567     C      0.856600000000     0.514140000000     0.759970000000     0.0442051  
C568     C      0.856620000000     0.971840000000     0.725140000000     0.137633   
C569     C      0.983650000000     0.882080000000     0.770020000000     0.032375   
C570     C      0.515500000000     0.883030000000     0.725770000000     0.0111559  
C571     C      0.982530000000     0.849820000000     0.768380000000     0.0388405  
C572     C      0.516240000000     0.850670000000     0.725180000000     0.137454   
C573     C      0.514700000000     0.600550000000     0.764600000000     0.0357116  
C574     C      0.482660000000     0.600160000000     0.720480000000     0.0114363  
C575     C      0.516360000000     0.632650000000     0.763170000000     0.044657   
C576     C      0.482270000000     0.632640000000     0.720260000000     0.137933   
Cu1      Cu     0.497830000000     0.490230000000     0.217400000000     0.870818   
Cu2      Cu     0.997400000000     0.992810000000     0.274370000000     0.833591   
Cu3      Cu     0.470980000000     0.241460000000     0.245790000000     0.874482   
Cu4      Cu     0.027640000000     0.241300000000     0.245640000000     0.868676   
Cu5      Cu     0.247530000000     0.021700000000     0.246080000000     0.864657   
Cu6      Cu     0.247550000000     0.464680000000     0.245030000000     0.878107   
Cu7      Cu     0.270700000000     0.995140000000     0.495940000000     0.866736   
Cu8      Cu     0.214070000000     0.496500000000     0.995100000000     0.841963   
Cu9      Cu     0.998840000000     0.210930000000     0.495230000000     0.849118   
Cu10     Cu     0.498830000000     0.267910000000     0.996260000000     0.870358   
Cu11     Cu     0.248580000000     0.248100000000     0.023560000000     0.869174   
Cu12     Cu     0.248530000000     0.243410000000     0.466750000000     0.862428   
Cu13     Cu     0.497830000000     0.490230000000     0.717400000000     0.870487   
Cu14     Cu     0.997400000000     0.992810000000     0.774370000000     0.833416   
Cu15     Cu     0.470980000000     0.241460000000     0.745790000000     0.87452    
Cu16     Cu     0.027640000000     0.241300000000     0.745640000000     0.868663   
Cu17     Cu     0.247530000000     0.021700000000     0.746080000000     0.86464    
Cu18     Cu     0.247550000000     0.464680000000     0.745030000000     0.878125   
Cu19     Cu     0.270700000000     0.995140000000     0.995940000000     0.857601   
Cu20     Cu     0.214070000000     0.496500000000     0.495100000000     0.846599   
Cu21     Cu     0.998840000000     0.210930000000     0.995230000000     0.844588   
Cu22     Cu     0.498830000000     0.267910000000     0.496260000000     0.875354   
Cu23     Cu     0.248580000000     0.248100000000     0.523560000000     0.865956   
Cu24     Cu     0.248530000000     0.243410000000     0.966750000000     0.856408   
Cu25     Cu     0.497830000000     0.990230000000     0.217400000000     0.867043   
Cu26     Cu     0.997400000000     0.492810000000     0.274370000000     0.837675   
Cu27     Cu     0.470980000000     0.741460000000     0.245790000000     0.874365   
Cu28     Cu     0.027640000000     0.741300000000     0.245640000000     0.868671   
Cu29     Cu     0.247530000000     0.521700000000     0.246080000000     0.861756   
Cu30     Cu     0.247550000000     0.964680000000     0.245030000000     0.873261   
Cu31     Cu     0.270700000000     0.495140000000     0.495940000000     0.874378   
Cu32     Cu     0.214070000000     0.996500000000     0.995100000000     0.838089   
Cu33     Cu     0.998840000000     0.710930000000     0.495230000000     0.848897   
Cu34     Cu     0.498830000000     0.767920000000     0.996260000000     0.870361   
Cu35     Cu     0.248580000000     0.748100000000     0.023560000000     0.869184   
Cu36     Cu     0.248530000000     0.743420000000     0.466750000000     0.862387   
Cu37     Cu     0.497830000000     0.990230000000     0.717400000000     0.866707   
Cu38     Cu     0.997400000000     0.492810000000     0.774370000000     0.837501   
Cu39     Cu     0.470980000000     0.741460000000     0.745790000000     0.874403   
Cu40     Cu     0.027640000000     0.741300000000     0.745640000000     0.868658   
Cu41     Cu     0.247530000000     0.521700000000     0.746080000000     0.861734   
Cu42     Cu     0.247550000000     0.964680000000     0.745030000000     0.873272   
Cu43     Cu     0.270700000000     0.495140000000     0.995940000000     0.865206   
Cu44     Cu     0.214070000000     0.996500000000     0.495100000000     0.842708   
Cu45     Cu     0.998840000000     0.710930000000     0.995230000000     0.844361   
Cu46     Cu     0.498830000000     0.767920000000     0.496260000000     0.875358   
Cu47     Cu     0.248580000000     0.748100000000     0.523560000000     0.865961   
Cu48     Cu     0.248530000000     0.743420000000     0.966750000000     0.85636    
Cu49     Cu     0.997830000000     0.490230000000     0.217400000000     0.857097   
Cu50     Cu     0.497400000000     0.992810000000     0.274370000000     0.846886   
Cu51     Cu     0.970980000000     0.241460000000     0.245790000000     0.865834   
Cu52     Cu     0.527640000000     0.241300000000     0.245640000000     0.863646   
Cu53     Cu     0.747530000000     0.021700000000     0.246080000000     0.864755   
Cu54     Cu     0.747550000000     0.464680000000     0.245030000000     0.878084   
Cu55     Cu     0.770700000000     0.995140000000     0.495940000000     0.866587   
Cu56     Cu     0.714070000000     0.496500000000     0.995100000000     0.841374   
Cu57     Cu     0.498840000000     0.210930000000     0.495230000000     0.862333   
Cu58     Cu     0.998830000000     0.267910000000     0.996260000000     0.856791   
Cu59     Cu     0.748580000000     0.248100000000     0.023560000000     0.869177   
Cu60     Cu     0.748540000000     0.243410000000     0.466750000000     0.862409   
Cu61     Cu     0.997830000000     0.490230000000     0.717400000000     0.85675    
Cu62     Cu     0.497400000000     0.992810000000     0.774370000000     0.846715   
Cu63     Cu     0.970980000000     0.241460000000     0.745790000000     0.865864   
Cu64     Cu     0.527640000000     0.241300000000     0.745640000000     0.863627   
Cu65     Cu     0.747530000000     0.021700000000     0.746080000000     0.864739   
Cu66     Cu     0.747550000000     0.464680000000     0.745030000000     0.878101   
Cu67     Cu     0.770700000000     0.995140000000     0.995940000000     0.857447   
Cu68     Cu     0.714070000000     0.496500000000     0.495100000000     0.846015   
Cu69     Cu     0.498840000000     0.210930000000     0.995230000000     0.857757   
Cu70     Cu     0.998830000000     0.267910000000     0.496260000000     0.861754   
Cu71     Cu     0.748580000000     0.248100000000     0.523560000000     0.865953   
Cu72     Cu     0.748540000000     0.243410000000     0.966750000000     0.856381   
Cu73     Cu     0.997830000000     0.990230000000     0.217400000000     0.853352   
Cu74     Cu     0.497400000000     0.492810000000     0.274370000000     0.851016   
Cu75     Cu     0.970980000000     0.741460000000     0.245790000000     0.86571    
Cu76     Cu     0.527640000000     0.741300000000     0.245640000000     0.863635   
Cu77     Cu     0.747530000000     0.521700000000     0.246080000000     0.861849   
Cu78     Cu     0.747550000000     0.964680000000     0.245030000000     0.873231   
Cu79     Cu     0.770700000000     0.495140000000     0.495940000000     0.874234   
Cu80     Cu     0.714070000000     0.996500000000     0.995100000000     0.837497   
Cu81     Cu     0.498840000000     0.710930000000     0.495230000000     0.86213    
Cu82     Cu     0.998830000000     0.767920000000     0.996260000000     0.856788   
Cu83     Cu     0.748580000000     0.748100000000     0.023560000000     0.869187   
Cu84     Cu     0.748540000000     0.743420000000     0.466750000000     0.862368   
Cu85     Cu     0.997830000000     0.990230000000     0.717400000000     0.852999   
Cu86     Cu     0.497400000000     0.492810000000     0.774370000000     0.850845   
Cu87     Cu     0.970980000000     0.741460000000     0.745790000000     0.86574    
Cu88     Cu     0.527640000000     0.741300000000     0.745640000000     0.863617   
Cu89     Cu     0.747530000000     0.521700000000     0.746080000000     0.861827   
Cu90     Cu     0.747550000000     0.964680000000     0.745030000000     0.873242   
Cu91     Cu     0.770700000000     0.495140000000     0.995940000000     0.865057   
Cu92     Cu     0.714070000000     0.996500000000     0.495100000000     0.842121   
Cu93     Cu     0.498840000000     0.710930000000     0.995230000000     0.857548   
Cu94     Cu     0.998830000000     0.767920000000     0.496260000000     0.861753   
Cu95     Cu     0.748580000000     0.748100000000     0.523560000000     0.865957   
Cu96     Cu     0.748540000000     0.743420000000     0.966750000000     0.856333   
H1       H      0.343160000000     0.196850000000     0.478880000000     0.0464516  
H2       H      0.399500000000     0.193230000000     0.481010000000     0.0499005  
H3       H      0.403890000000     0.287120000000     0.011120000000     0.0769149  
H4       H      0.094390000000     0.269480000000     0.034770000000     0.0424322  
H5       H      0.150420000000     0.269810000000     0.036390000000     0.0442449  
H6       H      0.153400000000     0.215550000000     0.454270000000     0.063977   
H7       H      0.201390000000     0.340640000000     0.515560000000     0.039788   
H8       H      0.198070000000     0.396910000000     0.514800000000     0.0495259  
H9       H      0.282780000000     0.400860000000     0.464510000000     0.0676159  
H10      H      0.209270000000     0.150720000000     0.969890000000     0.0432821  
H11      H      0.205880000000     0.094930000000     0.970450000000     0.0456366  
H12      H      0.284440000000     0.090520000000     0.029750000000     0.0671603  
H13      H      0.210320000000     0.962470000000     0.341840000000     0.0396219  
H14      H      0.205740000000     0.966840000000     0.397690000000     0.0433294  
H15      H      0.284640000000     0.025670000000     0.399790000000     0.0676527  
H16      H      0.214030000000     0.032300000000     0.092760000000     0.0434053  
H17      H      0.218280000000     0.034610000000     0.148750000000     0.0491306  
H18      H      0.270300000000     0.450980000000     0.148270000000     0.081357   
H19      H      0.029870000000     0.277490000000     0.342330000000     0.0420858  
H20      H      0.027780000000     0.279570000000     0.398380000000     0.0474247  
H21      H      0.469970000000     0.199870000000     0.399380000000     0.0673807  
H22      H      0.034190000000     0.207080000000     0.092810000000     0.0431678  
H23      H      0.036880000000     0.210430000000     0.148780000000     0.0494992  
H24      H      0.959770000000     0.271620000000     0.149150000000     0.0739231  
H25      H      0.150890000000     0.021330000000     0.285470000000     0.0391506  
H26      H      0.094780000000     0.018770000000     0.287540000000     0.0425778  
H27      H      0.093920000000     0.465450000000     0.204780000000     0.0673463  
H28      H      0.344720000000     0.031550000000     0.273510000000     0.0571099  
H29      H      0.400600000000     0.028560000000     0.277280000000     0.0483023  
H30      H      0.401490000000     0.455890000000     0.210970000000     0.0677954  
H31      H      0.469190000000     0.337470000000     0.285640000000     0.0420326  
H32      H      0.470520000000     0.393660000000     0.287950000000     0.0448358  
H33      H      0.028150000000     0.395590000000     0.208130000000     0.0687796  
H34      H      0.030010000000     0.144600000000     0.280500000000     0.049097   
H35      H      0.027710000000     0.088770000000     0.282510000000     0.0455797  
H36      H      0.969740000000     0.087750000000     0.202930000000     0.0676086  
H37      H      0.343160000000     0.196850000000     0.978880000000     0.0458484  
H38      H      0.399500000000     0.193230000000     0.981010000000     0.0493476  
H39      H      0.403890000000     0.287120000000     0.511120000000     0.0762988  
H40      H      0.094390000000     0.269480000000     0.534770000000     0.0421376  
H41      H      0.150420000000     0.269810000000     0.536390000000     0.0442934  
H42      H      0.153400000000     0.215550000000     0.954270000000     0.0640065  
H43      H      0.201390000000     0.340640000000     0.015560000000     0.0401161  
H44      H      0.198070000000     0.396910000000     0.014800000000     0.0500863  
H45      H      0.282780000000     0.400860000000     0.964510000000     0.0673258  
H46      H      0.209270000000     0.150720000000     0.469900000000     0.0422703  
H47      H      0.205880000000     0.094930000000     0.470450000000     0.0462363  
H48      H      0.284440000000     0.090520000000     0.529750000000     0.0675019  
H49      H      0.210320000000     0.962470000000     0.841840000000     0.0395524  
H50      H      0.205740000000     0.966840000000     0.897690000000     0.0431248  
H51      H      0.284640000000     0.025670000000     0.899790000000     0.0673829  
H52      H      0.214030000000     0.032300000000     0.592760000000     0.0428063  
H53      H      0.218280000000     0.034610000000     0.648750000000     0.0489712  
H54      H      0.270300000000     0.450980000000     0.648270000000     0.081275   
H55      H      0.029870000000     0.277490000000     0.842330000000     0.0420124  
H56      H      0.027780000000     0.279570000000     0.898380000000     0.0472192  
H57      H      0.469970000000     0.199870000000     0.899380000000     0.0672428  
H58      H      0.034190000000     0.207080000000     0.592810000000     0.0425558  
H59      H      0.036880000000     0.210430000000     0.648780000000     0.0493321  
H60      H      0.959770000000     0.271620000000     0.649150000000     0.0738477  
H61      H      0.150890000000     0.021330000000     0.785470000000     0.0391001  
H62      H      0.094780000000     0.018770000000     0.787540000000     0.0425061  
H63      H      0.093920000000     0.465450000000     0.704780000000     0.0672243  
H64      H      0.344720000000     0.031550000000     0.773510000000     0.0570823  
H65      H      0.400600000000     0.028560000000     0.777280000000     0.0482355  
H66      H      0.401490000000     0.455890000000     0.710970000000     0.0676851  
H67      H      0.469190000000     0.337470000000     0.785640000000     0.0419678  
H68      H      0.470520000000     0.393660000000     0.787950000000     0.0447513  
H69      H      0.028150000000     0.395590000000     0.708130000000     0.0686669  
H70      H      0.030010000000     0.144600000000     0.780500000000     0.0490587  
H71      H      0.027710000000     0.088770000000     0.782510000000     0.0455286  
H72      H      0.969740000000     0.087750000000     0.702930000000     0.0674394  
H73      H      0.343160000000     0.696850000000     0.478880000000     0.0463732  
H74      H      0.399500000000     0.693230000000     0.481010000000     0.0497447  
H75      H      0.403890000000     0.787110000000     0.011120000000     0.0768618  
H76      H      0.094390000000     0.769480000000     0.034770000000     0.0423844  
H77      H      0.150420000000     0.769810000000     0.036390000000     0.044215   
H78      H      0.153400000000     0.715550000000     0.454270000000     0.0639206  
H79      H      0.201390000000     0.840640000000     0.515560000000     0.0397466  
H80      H      0.198070000000     0.896910000000     0.514800000000     0.049393   
H81      H      0.282780000000     0.900860000000     0.464510000000     0.067355   
H82      H      0.209270000000     0.650720000000     0.969890000000     0.0431834  
H83      H      0.205880000000     0.594930000000     0.970450000000     0.045158   
H84      H      0.284440000000     0.590520000000     0.029750000000     0.0666707  
H85      H      0.210320000000     0.462470000000     0.341840000000     0.0398644  
H86      H      0.205740000000     0.466840000000     0.397690000000     0.04351    
H87      H      0.284640000000     0.525670000000     0.399790000000     0.0676495  
H88      H      0.214030000000     0.532310000000     0.092760000000     0.0430657  
H89      H      0.218280000000     0.534610000000     0.148750000000     0.0489979  
H90      H      0.270300000000     0.950980000000     0.148270000000     0.0814528  
H91      H      0.029870000000     0.777490000000     0.342330000000     0.0420418  
H92      H      0.027780000000     0.779570000000     0.398380000000     0.0473544  
H93      H      0.469970000000     0.699870000000     0.399380000000     0.0672625  
H94      H      0.034190000000     0.707080000000     0.092810000000     0.0430357  
H95      H      0.036880000000     0.710430000000     0.148780000000     0.0494037  
H96      H      0.959770000000     0.771620000000     0.149150000000     0.073908   
H97      H      0.150890000000     0.521330000000     0.285470000000     0.0387944  
H98      H      0.094780000000     0.518770000000     0.287540000000     0.0421009  
H99      H      0.093920000000     0.965450000000     0.204780000000     0.0671422  
H100     H      0.344720000000     0.531550000000     0.273510000000     0.0572795  
H101     H      0.400600000000     0.528560000000     0.277280000000     0.0480465  
H102     H      0.401490000000     0.955880000000     0.210970000000     0.0676616  
H103     H      0.469190000000     0.837470000000     0.285640000000     0.0419691  
H104     H      0.470520000000     0.893660000000     0.287950000000     0.0446527  
H105     H      0.028150000000     0.895590000000     0.208130000000     0.0686912  
H106     H      0.030010000000     0.644590000000     0.280500000000     0.048961   
H107     H      0.027710000000     0.588770000000     0.282510000000     0.045124   
H108     H      0.969740000000     0.587750000000     0.202930000000     0.0670947  
H109     H      0.343160000000     0.696850000000     0.978880000000     0.0457686  
H110     H      0.399500000000     0.693230000000     0.981010000000     0.049191   
H111     H      0.403890000000     0.787110000000     0.511120000000     0.0762463  
H112     H      0.094390000000     0.769480000000     0.534770000000     0.0420896  
H113     H      0.150420000000     0.769810000000     0.536390000000     0.0442637  
H114     H      0.153400000000     0.715550000000     0.954270000000     0.06395    
H115     H      0.201390000000     0.840640000000     0.015560000000     0.040075   
H116     H      0.198070000000     0.896910000000     0.014800000000     0.0499535  
H117     H      0.282780000000     0.900860000000     0.964510000000     0.0670655  
H118     H      0.209270000000     0.650720000000     0.469900000000     0.0421703  
H119     H      0.205880000000     0.594930000000     0.470450000000     0.045759   
H120     H      0.284440000000     0.590520000000     0.529750000000     0.0670115  
H121     H      0.210320000000     0.462470000000     0.841840000000     0.0397948  
H122     H      0.205740000000     0.466840000000     0.897690000000     0.043305   
H123     H      0.284640000000     0.525670000000     0.899790000000     0.0673787  
H124     H      0.214030000000     0.532310000000     0.592760000000     0.0424638  
H125     H      0.218280000000     0.534610000000     0.648750000000     0.0488375  
H126     H      0.270300000000     0.950980000000     0.648270000000     0.081371   
H127     H      0.029870000000     0.777490000000     0.842330000000     0.0419684  
H128     H      0.027780000000     0.779570000000     0.898380000000     0.047149   
H129     H      0.469970000000     0.699870000000     0.899380000000     0.0671243  
H130     H      0.034190000000     0.707080000000     0.592810000000     0.0424219  
H131     H      0.036880000000     0.710430000000     0.648780000000     0.049236   
H132     H      0.959770000000     0.771620000000     0.649150000000     0.0738325  
H133     H      0.150890000000     0.521330000000     0.785470000000     0.0387438  
H134     H      0.094780000000     0.518770000000     0.787540000000     0.0420294  
H135     H      0.093920000000     0.965450000000     0.704780000000     0.0670202  
H136     H      0.344720000000     0.531550000000     0.773510000000     0.0572523  
H137     H      0.400600000000     0.528560000000     0.777280000000     0.0479794  
H138     H      0.401490000000     0.955880000000     0.710970000000     0.0675512  
H139     H      0.469190000000     0.837470000000     0.785640000000     0.0419045  
H140     H      0.470520000000     0.893660000000     0.787950000000     0.0445684  
H141     H      0.028150000000     0.895590000000     0.708130000000     0.0685784  
H142     H      0.030010000000     0.644590000000     0.780500000000     0.0489226  
H143     H      0.027710000000     0.588770000000     0.782510000000     0.0450722  
H144     H      0.969740000000     0.587750000000     0.702930000000     0.0669238  
H145     H      0.843160000000     0.196850000000     0.478880000000     0.0463691  
H146     H      0.899500000000     0.193230000000     0.481010000000     0.0496246  
H147     H      0.903890000000     0.287120000000     0.011120000000     0.0766398  
H148     H      0.594380000000     0.269480000000     0.034770000000     0.0416143  
H149     H      0.650420000000     0.269810000000     0.036390000000     0.0440458  
H150     H      0.653400000000     0.215550000000     0.454270000000     0.0638621  
H151     H      0.701390000000     0.340640000000     0.515560000000     0.0396159  
H152     H      0.698070000000     0.396910000000     0.514800000000     0.0492576  
H153     H      0.782780000000     0.400860000000     0.464510000000     0.067496   
H154     H      0.709270000000     0.150720000000     0.969890000000     0.0431612  
H155     H      0.705880000000     0.094930000000     0.970450000000     0.0454117  
H156     H      0.784440000000     0.090520000000     0.029750000000     0.0670579  
H157     H      0.710320000000     0.962470000000     0.341840000000     0.0394506  
H158     H      0.705730000000     0.966840000000     0.397690000000     0.0430813  
H159     H      0.784640000000     0.025670000000     0.399790000000     0.0675505  
H160     H      0.714030000000     0.032300000000     0.092760000000     0.0432163  
H161     H      0.718280000000     0.034610000000     0.148750000000     0.0489905  
H162     H      0.770300000000     0.450980000000     0.148270000000     0.0813284  
H163     H      0.529870000000     0.277490000000     0.342330000000     0.0416806  
H164     H      0.527780000000     0.279570000000     0.398380000000     0.0472026  
H165     H      0.969970000000     0.199870000000     0.399380000000     0.0671559  
H166     H      0.534190000000     0.207080000000     0.092810000000     0.0429816  
H167     H      0.536880000000     0.210430000000     0.148780000000     0.049291   
H168     H      0.459770000000     0.271620000000     0.149150000000     0.0741877  
H169     H      0.650900000000     0.021330000000     0.285470000000     0.0389338  
H170     H      0.594780000000     0.018770000000     0.287540000000     0.0418828  
H171     H      0.593920000000     0.465450000000     0.204780000000     0.0667218  
H172     H      0.844720000000     0.031550000000     0.273510000000     0.0570331  
H173     H      0.900600000000     0.028560000000     0.277280000000     0.047936   
H174     H      0.901490000000     0.455890000000     0.210970000000     0.0673772  
H175     H      0.969190000000     0.337470000000     0.285640000000     0.0415429  
H176     H      0.970520000000     0.393660000000     0.287950000000     0.0445209  
H177     H      0.528150000000     0.395590000000     0.208130000000     0.0687401  
H178     H      0.530010000000     0.144600000000     0.280500000000     0.048582   
H179     H      0.527710000000     0.088770000000     0.282510000000     0.0452833  
H180     H      0.469740000000     0.087750000000     0.202930000000     0.0678047  
H181     H      0.843160000000     0.196850000000     0.978880000000     0.0457662  
H182     H      0.899500000000     0.193230000000     0.981010000000     0.0490725  
H183     H      0.903890000000     0.287120000000     0.511120000000     0.0760231  
H184     H      0.594380000000     0.269480000000     0.534770000000     0.0413151  
H185     H      0.650420000000     0.269810000000     0.536390000000     0.0440938  
H186     H      0.653400000000     0.215550000000     0.954270000000     0.0638918  
H187     H      0.701390000000     0.340640000000     0.015560000000     0.0399459  
H188     H      0.698070000000     0.396910000000     0.014800000000     0.0498207  
H189     H      0.782780000000     0.400860000000     0.964510000000     0.0672065  
H190     H      0.709270000000     0.150720000000     0.469900000000     0.0421478  
H191     H      0.705880000000     0.094930000000     0.470450000000     0.046012   
H192     H      0.784440000000     0.090520000000     0.529750000000     0.0674     
H193     H      0.710320000000     0.962470000000     0.841840000000     0.039381   
H194     H      0.705730000000     0.966840000000     0.897690000000     0.0428764  
H195     H      0.784640000000     0.025670000000     0.899790000000     0.0672808  
H196     H      0.714030000000     0.032300000000     0.592760000000     0.0426156  
H197     H      0.718280000000     0.034610000000     0.648750000000     0.0488305  
H198     H      0.770300000000     0.450980000000     0.648270000000     0.0812463  
H199     H      0.529870000000     0.277490000000     0.842330000000     0.0416067  
H200     H      0.527780000000     0.279570000000     0.898380000000     0.0469964  
H201     H      0.969970000000     0.199870000000     0.899380000000     0.0670184  
H202     H      0.534190000000     0.207080000000     0.592810000000     0.0423673  
H203     H      0.536880000000     0.210430000000     0.648780000000     0.049123   
H204     H      0.459770000000     0.271620000000     0.649150000000     0.0741127  
H205     H      0.650900000000     0.021330000000     0.785470000000     0.0388832  
H206     H      0.594780000000     0.018770000000     0.787540000000     0.0418107  
H207     H      0.593920000000     0.465450000000     0.704780000000     0.0665983  
H208     H      0.844720000000     0.031550000000     0.773510000000     0.0570055  
H209     H      0.900600000000     0.028560000000     0.777280000000     0.0478693  
H210     H      0.901490000000     0.455890000000     0.710970000000     0.0672663  
H211     H      0.969190000000     0.337470000000     0.785640000000     0.0414788  
H212     H      0.970520000000     0.393660000000     0.787950000000     0.0444372  
H213     H      0.528150000000     0.395590000000     0.708130000000     0.0686261  
H214     H      0.530010000000     0.144600000000     0.780500000000     0.0485443  
H215     H      0.527710000000     0.088770000000     0.782510000000     0.0452319  
H216     H      0.469740000000     0.087750000000     0.702930000000     0.067636   
H217     H      0.843160000000     0.696850000000     0.478880000000     0.0462905  
H218     H      0.899500000000     0.693230000000     0.481010000000     0.0494682  
H219     H      0.903890000000     0.787110000000     0.011120000000     0.0765872  
H220     H      0.594380000000     0.769480000000     0.034770000000     0.0415659  
H221     H      0.650420000000     0.769810000000     0.036390000000     0.0440158  
H222     H      0.653400000000     0.715550000000     0.454270000000     0.0638053  
H223     H      0.701390000000     0.840640000000     0.515560000000     0.0395744  
H224     H      0.698070000000     0.896910000000     0.514800000000     0.0491247  
H225     H      0.782780000000     0.900860000000     0.464510000000     0.0672353  
H226     H      0.709270000000     0.650720000000     0.969890000000     0.0430618  
H227     H      0.705880000000     0.594930000000     0.970450000000     0.0449313  
H228     H      0.784440000000     0.590520000000     0.029750000000     0.0665674  
H229     H      0.710320000000     0.462470000000     0.341840000000     0.0396933  
H230     H      0.705730000000     0.466840000000     0.397690000000     0.0432622  
H231     H      0.784640000000     0.525670000000     0.399790000000     0.0675472  
H232     H      0.714030000000     0.532310000000     0.092760000000     0.0428751  
H233     H      0.718280000000     0.534610000000     0.148750000000     0.0488567  
H234     H      0.770300000000     0.950980000000     0.148270000000     0.0814244  
H235     H      0.529870000000     0.777490000000     0.342330000000     0.0416371  
H236     H      0.527780000000     0.779570000000     0.398380000000     0.0471326  
H237     H      0.969970000000     0.699870000000     0.399380000000     0.0670371  
H238     H      0.534190000000     0.707080000000     0.092810000000     0.0428479  
H239     H      0.536880000000     0.710430000000     0.148780000000     0.0491941  
H240     H      0.459770000000     0.771620000000     0.149150000000     0.0741723  
H241     H      0.650900000000     0.521330000000     0.285470000000     0.0385751  
H242     H      0.594780000000     0.518770000000     0.287540000000     0.0414022  
H243     H      0.593920000000     0.965450000000     0.204780000000     0.0665183  
H244     H      0.844720000000     0.531550000000     0.273510000000     0.0572027  
H245     H      0.900600000000     0.528560000000     0.277280000000     0.0476791  
H246     H      0.901490000000     0.955880000000     0.210970000000     0.067244   
H247     H      0.969190000000     0.837470000000     0.285640000000     0.0414796  
H248     H      0.970520000000     0.893660000000     0.287950000000     0.0443383  
H249     H      0.528150000000     0.895590000000     0.208130000000     0.0686515  
H250     H      0.530010000000     0.644590000000     0.280500000000     0.0484458  
H251     H      0.527710000000     0.588770000000     0.282510000000     0.0448253  
H252     H      0.469740000000     0.587750000000     0.202930000000     0.0672909  
H253     H      0.843160000000     0.696850000000     0.978880000000     0.0456862  
H254     H      0.899500000000     0.693230000000     0.981010000000     0.0489153  
H255     H      0.903890000000     0.787110000000     0.511120000000     0.0759711  
H256     H      0.594380000000     0.769480000000     0.534770000000     0.0412665  
H257     H      0.650420000000     0.769810000000     0.536390000000     0.044064   
H258     H      0.653400000000     0.715550000000     0.954270000000     0.063835   
H259     H      0.701390000000     0.840640000000     0.015560000000     0.0399048  
H260     H      0.698070000000     0.896910000000     0.014800000000     0.0496879  
H261     H      0.782780000000     0.900860000000     0.964510000000     0.0669464  
H262     H      0.709270000000     0.650720000000     0.469900000000     0.0420472  
H263     H      0.705880000000     0.594930000000     0.470450000000     0.0455329  
H264     H      0.784440000000     0.590520000000     0.529750000000     0.0669087  
H265     H      0.710320000000     0.462470000000     0.841840000000     0.0396237  
H266     H      0.705730000000     0.466840000000     0.897690000000     0.0430569  
H267     H      0.784640000000     0.525670000000     0.899790000000     0.0672766  
H268     H      0.714030000000     0.532310000000     0.592760000000     0.0422714  
H269     H      0.718280000000     0.534610000000     0.648750000000     0.0486956  
H270     H      0.770300000000     0.950980000000     0.648270000000     0.0813425  
H271     H      0.529870000000     0.777490000000     0.842330000000     0.0415633  
H272     H      0.527780000000     0.779570000000     0.898380000000     0.0469268  
H273     H      0.969970000000     0.699870000000     0.899380000000     0.0668993  
H274     H      0.534190000000     0.707080000000     0.592810000000     0.0422319  
H275     H      0.536880000000     0.710430000000     0.648780000000     0.0490254  
H276     H      0.459770000000     0.771620000000     0.649150000000     0.0740972  
H277     H      0.650900000000     0.521330000000     0.785470000000     0.0385244  
H278     H      0.594780000000     0.518770000000     0.787540000000     0.0413303  
H279     H      0.593920000000     0.965450000000     0.704780000000     0.0663947  
H280     H      0.844720000000     0.531550000000     0.773510000000     0.0571755  
H281     H      0.900600000000     0.528560000000     0.777280000000     0.0476121  
H282     H      0.901490000000     0.955880000000     0.710970000000     0.067133   
H283     H      0.969190000000     0.837470000000     0.785640000000     0.0414156  
H284     H      0.970520000000     0.893660000000     0.787950000000     0.0442549  
H285     H      0.528150000000     0.895590000000     0.708130000000     0.0685374  
H286     H      0.530010000000     0.644590000000     0.780500000000     0.0484079  
H287     H      0.527710000000     0.588770000000     0.782510000000     0.0447733  
H288     H      0.469740000000     0.587750000000     0.702930000000     0.0671205  
N1       N      0.405820000000     0.239890000000     0.496340000000    -0.165748   
N2       N      0.341730000000     0.243440000000     0.495170000000    -0.184416   
N3       N      0.344960000000     0.297640000000     0.008390000000    -0.034555   
N4       N      0.155700000000     0.242720000000     0.995370000000    -0.171328   
N5       N      0.091620000000     0.240580000000     0.994710000000    -0.188649   
N6       N      0.093260000000     0.208800000000     0.447580000000    -0.0281712  
N7       N      0.240200000000     0.402990000000     0.489580000000    -0.166062   
N8       N      0.242960000000     0.338780000000     0.488980000000    -0.184186   
N9       N      0.293340000000     0.341780000000     0.465460000000    -0.0365071  
N10      N      0.245080000000     0.088730000000     0.999960000000    -0.170585   
N11      N      0.247560000000     0.152980000000     0.001160000000    -0.179275   
N12      N      0.291670000000     0.150530000000     0.036590000000    -0.0306187  
N13      N      0.244720000000     0.496870000000     0.402590000000    -0.168801   
N14      N      0.249030000000     0.493020000000     0.338580000000    -0.185945   
N15      N      0.294940000000     0.026300000000     0.339880000000    -0.0281056  
N16      N      0.245030000000     0.993190000000     0.152430000000    -0.166289   
N17      N      0.241520000000     0.991440000000     0.088270000000    -0.187492   
N18      N      0.271400000000     0.443090000000     0.088080000000    -0.0284351  
N19      N      0.498600000000     0.239910000000     0.402730000000    -0.167605   
N20      N      0.499600000000     0.238540000000     0.338520000000    -0.185474   
N21      N      0.466350000000     0.192420000000     0.339170000000    -0.0273672  
N22      N      0.998660000000     0.241550000000     0.152810000000    -0.168056   
N23      N      0.996620000000     0.238940000000     0.088660000000    -0.187232   
N24      N      0.951770000000     0.273840000000     0.088920000000    -0.0278637  
N25      N      0.090570000000     0.491870000000     0.246280000000    -0.168812   
N26      N      0.154690000000     0.493040000000     0.245080000000    -0.186352   
N27      N      0.154180000000     0.461740000000     0.197610000000    -0.0284106  
N28      N      0.404730000000     0.991700000000     0.244640000000    -0.17124    
N29      N      0.340590000000     0.993170000000     0.242520000000    -0.185172   
N30      N      0.341150000000     0.451170000000     0.204210000000    -0.0281578  
N31      N      0.999400000000     0.398500000000     0.248150000000    -0.171092   
N32      N      0.999290000000     0.334250000000     0.246510000000    -0.18844    
N33      N      0.032300000000     0.335640000000     0.200240000000    -0.0284327  
N34      N      0.498260000000     0.084450000000     0.242990000000    -0.168734   
N35      N      0.499410000000     0.148630000000     0.241830000000    -0.184548   
N36      N      0.966060000000     0.148220000000     0.195770000000    -0.0276102  
N37      N      0.405820000000     0.239890000000     0.996340000000    -0.168496   
N38      N      0.341730000000     0.243440000000     0.995170000000    -0.186075   
N39      N      0.344960000000     0.297640000000     0.508390000000    -0.0369153  
N40      N      0.155700000000     0.242720000000     0.495370000000    -0.169544   
N41      N      0.091620000000     0.240580000000     0.494710000000    -0.185989   
N42      N      0.093260000000     0.208800000000     0.947570000000    -0.0281278  
N43      N      0.240200000000     0.402990000000     0.989580000000    -0.168749   
N44      N      0.242960000000     0.338780000000     0.988980000000    -0.185962   
N45      N      0.293340000000     0.341780000000     0.965460000000    -0.0363973  
N46      N      0.245080000000     0.088730000000     0.499960000000    -0.168193   
N47      N      0.247560000000     0.152980000000     0.501160000000    -0.186238   
N48      N      0.291670000000     0.150530000000     0.536590000000    -0.0311014  
N49      N      0.244720000000     0.496870000000     0.902590000000    -0.168776   
N50      N      0.249030000000     0.493020000000     0.838580000000    -0.185943   
N51      N      0.294940000000     0.026300000000     0.839880000000    -0.0280989  
N52      N      0.245030000000     0.993190000000     0.652430000000    -0.16633    
N53      N      0.241520000000     0.991440000000     0.588270000000    -0.187815   
N54      N      0.271400000000     0.443090000000     0.588080000000    -0.0284011  
N55      N      0.498600000000     0.239910000000     0.902730000000    -0.167589   
N56      N      0.499600000000     0.238540000000     0.838520000000    -0.185475   
N57      N      0.466350000000     0.192420000000     0.839170000000    -0.027362   
N58      N      0.998660000000     0.241550000000     0.652810000000    -0.16809    
N59      N      0.996620000000     0.238940000000     0.588660000000    -0.187536   
N60      N      0.951770000000     0.273840000000     0.588920000000    -0.0278243  
N61      N      0.090570000000     0.491870000000     0.746290000000    -0.168816   
N62      N      0.154690000000     0.493040000000     0.745080000000    -0.186359   
N63      N      0.154180000000     0.461740000000     0.697610000000    -0.0284098  
N64      N      0.404730000000     0.991700000000     0.744640000000    -0.171271   
N65      N      0.340590000000     0.993170000000     0.742520000000    -0.185176   
N66      N      0.341150000000     0.451170000000     0.704210000000    -0.0281569  
N67      N      0.999400000000     0.398500000000     0.748150000000    -0.171073   
N68      N      0.999290000000     0.334250000000     0.746510000000    -0.188452   
N69      N      0.032300000000     0.335640000000     0.700240000000    -0.0284284  
N70      N      0.498260000000     0.084450000000     0.742980000000    -0.168757   
N71      N      0.499410000000     0.148630000000     0.741830000000    -0.184547   
N72      N      0.966060000000     0.148220000000     0.695770000000    -0.027593   
N73      N      0.405820000000     0.739890000000     0.496340000000    -0.165765   
N74      N      0.341730000000     0.743440000000     0.495170000000    -0.184416   
N75      N      0.344960000000     0.797640000000     0.008390000000    -0.0345608  
N76      N      0.155700000000     0.742720000000     0.995370000000    -0.171343   
N77      N      0.091620000000     0.740580000000     0.994710000000    -0.188672   
N78      N      0.093260000000     0.708800000000     0.447580000000    -0.0281666  
N79      N      0.240200000000     0.902990000000     0.489580000000    -0.166037   
N80      N      0.242960000000     0.838780000000     0.488980000000    -0.184185   
N81      N      0.293340000000     0.841780000000     0.465460000000    -0.036526   
N82      N      0.245080000000     0.588730000000     0.999960000000    -0.170916   
N83      N      0.247560000000     0.652980000000     0.001160000000    -0.179171   
N84      N      0.291670000000     0.650530000000     0.036590000000    -0.0305935  
N85      N      0.244720000000     0.996870000000     0.402590000000    -0.170248   
N86      N      0.249030000000     0.993020000000     0.338580000000    -0.187491   
N87      N      0.294940000000     0.526300000000     0.339880000000    -0.0278756  
N88      N      0.245030000000     0.493190000000     0.152430000000    -0.164822   
N89      N      0.241520000000     0.491440000000     0.088270000000    -0.185295   
N90      N      0.271400000000     0.943090000000     0.088080000000    -0.0284286  
N91      N      0.498600000000     0.739910000000     0.402730000000    -0.167632   
N92      N      0.499600000000     0.738540000000     0.338520000000    -0.185473   
N93      N      0.466350000000     0.692420000000     0.339170000000    -0.0273635  
N94      N      0.998660000000     0.741550000000     0.152810000000    -0.168064   
N95      N      0.996620000000     0.738940000000     0.088660000000    -0.187257   
N96      N      0.951770000000     0.773840000000     0.088920000000    -0.0278602  
N97      N      0.090570000000     0.991870000000     0.246280000000    -0.171083   
N98      N      0.154690000000     0.993040000000     0.245080000000    -0.187858   
N99      N      0.154180000000     0.961730000000     0.197610000000    -0.0282586  
N100     N      0.404730000000     0.491700000000     0.244640000000    -0.168954   
N101     N      0.340590000000     0.493170000000     0.242520000000    -0.183664   
N102     N      0.341150000000     0.951170000000     0.204210000000    -0.0280612  
N103     N      0.999400000000     0.898500000000     0.248150000000    -0.171078   
N104     N      0.999290000000     0.834250000000     0.246510000000    -0.188439   
N105     N      0.032300000000     0.835640000000     0.200240000000    -0.028431   
N106     N      0.498260000000     0.584450000000     0.242990000000    -0.169042   
N107     N      0.499410000000     0.648630000000     0.241830000000    -0.184557   
N108     N      0.966060000000     0.648220000000     0.195770000000    -0.0276004  
N109     N      0.405820000000     0.739890000000     0.996340000000    -0.168516   
N110     N      0.341730000000     0.743440000000     0.995170000000    -0.186077   
N111     N      0.344960000000     0.797640000000     0.508390000000    -0.0369227  
N112     N      0.155700000000     0.742720000000     0.495370000000    -0.169558   
N113     N      0.091620000000     0.740580000000     0.494710000000    -0.18601    
N114     N      0.093260000000     0.708800000000     0.947570000000    -0.0281232  
N115     N      0.240200000000     0.902990000000     0.989580000000    -0.168723   
N116     N      0.242960000000     0.838780000000     0.988980000000    -0.185961   
N117     N      0.293340000000     0.841780000000     0.965460000000    -0.0364163  
N118     N      0.245080000000     0.588730000000     0.499960000000    -0.168518   
N119     N      0.247560000000     0.652980000000     0.501160000000    -0.186146   
N120     N      0.291670000000     0.650530000000     0.536590000000    -0.031077   
N121     N      0.244720000000     0.996870000000     0.902590000000    -0.170223   
N122     N      0.249030000000     0.993020000000     0.838580000000    -0.187489   
N123     N      0.294940000000     0.526300000000     0.839880000000    -0.0278687  
N124     N      0.245030000000     0.493190000000     0.652430000000    -0.164859   
N125     N      0.241520000000     0.491440000000     0.588270000000    -0.185612   
N126     N      0.271400000000     0.943090000000     0.588080000000    -0.0283947  
N127     N      0.498600000000     0.739910000000     0.902730000000    -0.167617   
N128     N      0.499600000000     0.738540000000     0.838520000000    -0.185474   
N129     N      0.466350000000     0.692420000000     0.839170000000    -0.0273584  
N130     N      0.998660000000     0.741550000000     0.652810000000    -0.168099   
N131     N      0.996620000000     0.738940000000     0.588660000000    -0.187562   
N132     N      0.951770000000     0.773840000000     0.588920000000    -0.0278207  
N133     N      0.090570000000     0.991870000000     0.746290000000    -0.17109    
N134     N      0.154690000000     0.993040000000     0.745080000000    -0.187867   
N135     N      0.154180000000     0.961730000000     0.697610000000    -0.0282575  
N136     N      0.404730000000     0.491700000000     0.744640000000    -0.168983   
N137     N      0.340590000000     0.493170000000     0.742520000000    -0.183666   
N138     N      0.341150000000     0.951170000000     0.704210000000    -0.0280602  
N139     N      0.999400000000     0.898500000000     0.748150000000    -0.171058   
N140     N      0.999290000000     0.834250000000     0.746510000000    -0.188452   
N141     N      0.032300000000     0.835640000000     0.700240000000    -0.0284268  
N142     N      0.498260000000     0.584450000000     0.742980000000    -0.169066   
N143     N      0.499410000000     0.648630000000     0.741830000000    -0.184557   
N144     N      0.966060000000     0.648220000000     0.695770000000    -0.0275832  
N145     N      0.905810000000     0.239890000000     0.496340000000    -0.165524   
N146     N      0.841730000000     0.243440000000     0.495170000000    -0.184425   
N147     N      0.844960000000     0.297640000000     0.008390000000    -0.0345779  
N148     N      0.655700000000     0.242720000000     0.995370000000    -0.171362   
N149     N      0.591620000000     0.240580000000     0.994710000000    -0.189172   
N150     N      0.593260000000     0.208800000000     0.447580000000    -0.0281321  
N151     N      0.740200000000     0.402990000000     0.489580000000    -0.166101   
N152     N      0.742960000000     0.338780000000     0.488980000000    -0.184189   
N153     N      0.793340000000     0.341780000000     0.465460000000    -0.0365185  
N154     N      0.745080000000     0.088730000000     0.999960000000    -0.170627   
N155     N      0.747560000000     0.152980000000     0.001160000000    -0.179268   
N156     N      0.791670000000     0.150530000000     0.036590000000    -0.0305909  
N157     N      0.744720000000     0.496870000000     0.402590000000    -0.168799   
N158     N      0.749030000000     0.493020000000     0.338580000000    -0.185953   
N159     N      0.794940000000     0.026300000000     0.339880000000    -0.0280995  
N160     N      0.745030000000     0.993190000000     0.152430000000    -0.166304   
N161     N      0.741520000000     0.991440000000     0.088270000000    -0.187527   
N162     N      0.771400000000     0.443090000000     0.088080000000    -0.028428   
N163     N      0.998600000000     0.239910000000     0.402730000000    -0.1701     
N164     N      0.999590000000     0.238540000000     0.338520000000    -0.188158   
N165     N      0.966350000000     0.192420000000     0.339170000000    -0.0271498  
N166     N      0.498660000000     0.241550000000     0.152810000000    -0.165337   
N167     N      0.496620000000     0.238940000000     0.088660000000    -0.184779   
N168     N      0.451770000000     0.273840000000     0.088920000000    -0.0280019  
N169     N      0.590570000000     0.491870000000     0.246280000000    -0.169409   
N170     N      0.654690000000     0.493040000000     0.245080000000    -0.186371   
N171     N      0.654180000000     0.461740000000     0.197610000000    -0.0284088  
N172     N      0.904730000000     0.991700000000     0.244640000000    -0.171202   
N173     N      0.840590000000     0.993170000000     0.242520000000    -0.185162   
N174     N      0.841150000000     0.451170000000     0.204210000000    -0.028147   
N175     N      0.499400000000     0.398500000000     0.248150000000    -0.168644   
N176     N      0.499290000000     0.334250000000     0.246510000000    -0.185692   
N177     N      0.532300000000     0.335640000000     0.200240000000    -0.0279745  
N178     N      0.998260000000     0.084450000000     0.242990000000    -0.17115    
N179     N      0.999410000000     0.148630000000     0.241830000000    -0.187193   
N180     N      0.466060000000     0.148220000000     0.195770000000    -0.0278349  
N181     N      0.905810000000     0.239890000000     0.996340000000    -0.168273   
N182     N      0.841730000000     0.243440000000     0.995170000000    -0.186084   
N183     N      0.844960000000     0.297640000000     0.508390000000    -0.0369402  
N184     N      0.655700000000     0.242720000000     0.495370000000    -0.169573   
N185     N      0.591620000000     0.240580000000     0.494710000000    -0.186505   
N186     N      0.593260000000     0.208800000000     0.947570000000    -0.0280885  
N187     N      0.740200000000     0.402990000000     0.989580000000    -0.168792   
N188     N      0.742960000000     0.338780000000     0.988980000000    -0.185968   
N189     N      0.793340000000     0.341780000000     0.965460000000    -0.0364086  
N190     N      0.745080000000     0.088730000000     0.499960000000    -0.168232   
N191     N      0.747560000000     0.152980000000     0.501160000000    -0.186241   
N192     N      0.791670000000     0.150530000000     0.536590000000    -0.0310741  
N193     N      0.744720000000     0.496870000000     0.902590000000    -0.168774   
N194     N      0.749030000000     0.493020000000     0.838580000000    -0.18595    
N195     N      0.794940000000     0.026300000000     0.839880000000    -0.0280929  
N196     N      0.745030000000     0.993190000000     0.652430000000    -0.166345   
N197     N      0.741520000000     0.991440000000     0.588270000000    -0.187851   
N198     N      0.771400000000     0.443090000000     0.588080000000    -0.028394   
N199     N      0.998600000000     0.239910000000     0.902730000000    -0.170084   
N200     N      0.999590000000     0.238540000000     0.838520000000    -0.188158   
N201     N      0.966350000000     0.192420000000     0.839170000000    -0.0271445  
N202     N      0.498660000000     0.241550000000     0.652810000000    -0.165365   
N203     N      0.496620000000     0.238940000000     0.588660000000    -0.185078   
N204     N      0.451770000000     0.273840000000     0.588920000000    -0.0279629  
N205     N      0.590570000000     0.491870000000     0.746290000000    -0.169413   
N206     N      0.654690000000     0.493040000000     0.745080000000    -0.186378   
N207     N      0.654180000000     0.461740000000     0.697610000000    -0.0284079  
N208     N      0.904730000000     0.991700000000     0.744640000000    -0.171234   
N209     N      0.840590000000     0.993170000000     0.742520000000    -0.185165   
N210     N      0.841150000000     0.451170000000     0.704210000000    -0.0281461  
N211     N      0.499400000000     0.398500000000     0.748150000000    -0.168622   
N212     N      0.499290000000     0.334250000000     0.746510000000    -0.185702   
N213     N      0.532300000000     0.335640000000     0.700240000000    -0.0279696  
N214     N      0.998260000000     0.084450000000     0.742980000000    -0.171174   
N215     N      0.999410000000     0.148630000000     0.741830000000    -0.187195   
N216     N      0.466060000000     0.148220000000     0.695770000000    -0.0278181  
N217     N      0.905810000000     0.739890000000     0.496340000000    -0.165541   
N218     N      0.841730000000     0.743440000000     0.495170000000    -0.184426   
N219     N      0.844960000000     0.797640000000     0.008390000000    -0.0345837  
N220     N      0.655700000000     0.742720000000     0.995370000000    -0.171377   
N221     N      0.591620000000     0.740580000000     0.994710000000    -0.189196   
N222     N      0.593260000000     0.708800000000     0.447580000000    -0.0281275  
N223     N      0.740200000000     0.902990000000     0.489580000000    -0.166076   
N224     N      0.742960000000     0.838780000000     0.488980000000    -0.184189   
N225     N      0.793340000000     0.841780000000     0.465460000000    -0.0365375  
N226     N      0.745080000000     0.588730000000     0.999960000000    -0.170959   
N227     N      0.747560000000     0.652980000000     0.001160000000    -0.179164   
N228     N      0.791670000000     0.650530000000     0.036590000000    -0.0305657  
N229     N      0.744720000000     0.996870000000     0.402590000000    -0.170248   
N230     N      0.749030000000     0.993020000000     0.338580000000    -0.1875     
N231     N      0.794940000000     0.526300000000     0.339880000000    -0.0278691  
N232     N      0.745030000000     0.493190000000     0.152430000000    -0.164836   
N233     N      0.741520000000     0.491440000000     0.088270000000    -0.185327   
N234     N      0.771400000000     0.943090000000     0.088080000000    -0.0284216  
N235     N      0.998600000000     0.739910000000     0.402730000000    -0.17013    
N236     N      0.999590000000     0.738540000000     0.338520000000    -0.188159   
N237     N      0.966350000000     0.692420000000     0.339170000000    -0.0271459  
N238     N      0.498660000000     0.741550000000     0.152810000000    -0.165343   
N239     N      0.496620000000     0.738940000000     0.088660000000    -0.184802   
N240     N      0.451770000000     0.773840000000     0.088920000000    -0.0279986  
N241     N      0.590570000000     0.991870000000     0.246280000000    -0.171686   
N242     N      0.654690000000     0.993040000000     0.245080000000    -0.187881   
N243     N      0.654180000000     0.961730000000     0.197610000000    -0.0282564  
N244     N      0.904730000000     0.491700000000     0.244640000000    -0.168916   
N245     N      0.840590000000     0.493170000000     0.242520000000    -0.183653   
N246     N      0.841150000000     0.951170000000     0.204210000000    -0.0280503  
N247     N      0.499400000000     0.898500000000     0.248150000000    -0.16863    
N248     N      0.499290000000     0.834250000000     0.246510000000    -0.185693   
N249     N      0.532300000000     0.835640000000     0.200240000000    -0.0279727  
N250     N      0.998260000000     0.584450000000     0.242990000000    -0.171464   
N251     N      0.999410000000     0.648630000000     0.241830000000    -0.187209   
N252     N      0.466060000000     0.648220000000     0.195770000000    -0.0278256  
N253     N      0.905810000000     0.739890000000     0.996340000000    -0.168292   
N254     N      0.841730000000     0.743440000000     0.995170000000    -0.186087   
N255     N      0.844960000000     0.797640000000     0.508390000000    -0.0369475  
N256     N      0.655700000000     0.742720000000     0.495370000000    -0.169587   
N257     N      0.591620000000     0.740580000000     0.494710000000    -0.186526   
N258     N      0.593260000000     0.708800000000     0.947570000000    -0.0280838  
N259     N      0.740200000000     0.902990000000     0.989580000000    -0.168766   
N260     N      0.742960000000     0.838780000000     0.988980000000    -0.185968   
N261     N      0.793340000000     0.841780000000     0.965460000000    -0.0364275  
N262     N      0.745080000000     0.588730000000     0.499960000000    -0.168558   
N263     N      0.747560000000     0.652980000000     0.501160000000    -0.18615    
N264     N      0.791670000000     0.650530000000     0.536590000000    -0.0310497  
N265     N      0.744720000000     0.996870000000     0.902590000000    -0.170223   
N266     N      0.749030000000     0.993020000000     0.838580000000    -0.187498   
N267     N      0.794940000000     0.526300000000     0.839880000000    -0.0278622  
N268     N      0.745030000000     0.493190000000     0.652430000000    -0.164873   
N269     N      0.741520000000     0.491440000000     0.588270000000    -0.185644   
N270     N      0.771400000000     0.943090000000     0.588080000000    -0.0283875  
N271     N      0.998600000000     0.739910000000     0.902730000000    -0.170113   
N272     N      0.999590000000     0.738540000000     0.838520000000    -0.188159   
N273     N      0.966350000000     0.692420000000     0.839170000000    -0.0271406  
N274     N      0.498660000000     0.741550000000     0.652810000000    -0.165371   
N275     N      0.496620000000     0.738940000000     0.588660000000    -0.185102   
N276     N      0.451770000000     0.773840000000     0.588920000000    -0.0279595  
N277     N      0.590570000000     0.991870000000     0.746290000000    -0.171693   
N278     N      0.654690000000     0.993040000000     0.745080000000    -0.18789    
N279     N      0.654180000000     0.961730000000     0.697610000000    -0.0282553  
N280     N      0.904730000000     0.491700000000     0.744640000000    -0.168945   
N281     N      0.840590000000     0.493170000000     0.742520000000    -0.183655   
N282     N      0.841150000000     0.951170000000     0.704210000000    -0.0280493  
N283     N      0.499400000000     0.898500000000     0.748150000000    -0.168608   
N284     N      0.499290000000     0.834250000000     0.746510000000    -0.185703   
N285     N      0.532300000000     0.835640000000     0.700240000000    -0.0279678  
N286     N      0.998260000000     0.584450000000     0.742980000000    -0.171487   
N287     N      0.999410000000     0.648630000000     0.741830000000    -0.18721    
N288     N      0.466060000000     0.648220000000     0.695770000000    -0.0278087  
O1       O      0.494770000000     0.037310000000     0.218830000000    -0.384446   
O2       O      0.501050000000     0.444020000000     0.221650000000    -0.390838   
O3       O      0.451150000000     0.487100000000     0.219950000000    -0.387359   
O4       O      0.044500000000     0.992100000000     0.220470000000    -0.38444    
O5       O      0.044320000000     0.991460000000     0.272090000000    -0.383984   
O6       O      0.450550000000     0.495600000000     0.270840000000    -0.386081   
O7       O      0.994910000000     0.445490000000     0.272830000000    -0.383968   
O8       O      0.000210000000     0.039190000000     0.270090000000    -0.374647   
O9       O      0.473850000000     0.194950000000     0.239770000000    -0.368861   
O10      O      0.474030000000     0.288030000000     0.251540000000    -0.388008   
O11      O      0.473910000000     0.247010000000     0.199290000000    -0.379613   
O12      O      0.474050000000     0.235680000000     0.292260000000    -0.375824   
O13      O      0.024770000000     0.244800000000     0.292410000000    -0.382544   
O14      O      0.024550000000     0.237580000000     0.198900000000    -0.37497    
O15      O      0.024700000000     0.288020000000     0.242140000000    -0.369278   
O16      O      0.024560000000     0.194590000000     0.248920000000    -0.381424   
O17      O      0.243840000000     0.019000000000     0.198980000000    -0.37915    
O18      O      0.251230000000     0.018670000000     0.292560000000    -0.375445   
O19      O      0.294410000000     0.019050000000     0.243540000000    -0.377362   
O20      O      0.200710000000     0.018630000000     0.249630000000    -0.38531    
O21      O      0.200820000000     0.467460000000     0.242830000000    -0.378094   
O22      O      0.294410000000     0.467470000000     0.245600000000    -0.373062   
O23      O      0.245450000000     0.467390000000     0.292230000000    -0.387669   
O24      O      0.249400000000     0.467740000000     0.198530000000    -0.376192   
O25      O      0.267060000000     0.988580000000     0.042170000000    -0.371549   
O26      O      0.268620000000     0.001540000000     0.449550000000    -0.382189   
O27      O      0.269110000000     0.041570000000     0.502620000000    -0.3844     
O28      O      0.266370000000     0.449000000000     0.989160000000    -0.383328   
O29      O      0.215510000000     0.449480000000     0.997110000000    -0.385427   
O30      O      0.218560000000     0.043300000000     0.492960000000    -0.385014   
O31      O      0.217740000000     0.493740000000     0.448220000000    -0.388272   
O32      O      0.216550000000     0.498840000000     0.042120000000    -0.381631   
O33      O      0.001640000000     0.213580000000     0.042330000000    -0.369935   
O34      O      0.995740000000     0.214170000000     0.448760000000    -0.382323   
O35      O      0.045710000000     0.214290000000     0.492120000000    -0.369767   
O36      O      0.451880000000     0.213350000000     0.997160000000    -0.383991   
O37      O      0.452350000000     0.264820000000     0.994070000000    -0.388068   
O38      O      0.045400000000     0.265370000000     0.499480000000    -0.387568   
O39      O      0.502040000000     0.265350000000     0.449240000000    -0.387716   
O40      O      0.495380000000     0.264800000000     0.042710000000    -0.37482    
O41      O      0.252130000000     0.200910000000     0.023730000000    -0.365905   
O42      O      0.243870000000     0.294460000000     0.017790000000    -0.374805   
O43      O      0.201820000000     0.245300000000     0.021170000000    -0.383967   
O44      O      0.295640000000     0.251130000000     0.020100000000    -0.360796   
O45      O      0.295520000000     0.240560000000     0.469590000000    -0.378495   
O46      O      0.201800000000     0.244290000000     0.469560000000    -0.390268   
O47      O      0.250070000000     0.290940000000     0.466690000000    -0.369373   
O48      O      0.246110000000     0.197240000000     0.472660000000    -0.392258   
O49      O      0.331160000000     0.309580000000     0.984550000000    -0.0559119  
O50      O      0.341800000000     0.309600000000     0.035820000000    -0.0675048  
O51      O      0.105420000000     0.183590000000     0.436580000000    -0.0951234  
O52      O      0.070680000000     0.221760000000     0.432570000000    -0.0908952  
O53      O      0.310820000000     0.332980000000     0.988210000000    -0.0513076  
O54      O      0.296790000000     0.330190000000     0.437910000000    -0.0794557  
O55      O      0.320480000000     0.144120000000     0.530970000000    -0.0939573  
O56      O      0.284530000000     0.164360000000     0.062300000000    -0.0785503  
O57      O      0.311290000000     0.511510000000     0.319470000000    -0.0965229  
O58      O      0.304870000000     0.052750000000     0.350160000000    -0.0940491  
O59      O      0.256440000000     0.429020000000     0.066110000000    -0.0833187  
O60      O      0.296710000000     0.430760000000     0.098610000000    -0.0768674  
O61      O      0.440240000000     0.182360000000     0.350150000000    -0.0908457  
O62      O      0.979940000000     0.176770000000     0.317390000000    -0.0942387  
O63      O      0.442680000000     0.300550000000     0.099320000000    -0.0822415  
O64      O      0.935500000000     0.260200000000     0.067640000000    -0.0842923  
O65      O      0.175980000000     0.475940000000     0.182590000000    -0.0913538  
O66      O      0.143200000000     0.436060000000     0.186450000000    -0.0882057  
O67      O      0.351990000000     0.423500000000     0.199600000000    -0.085538   
O68      O      0.319590000000     0.461550000000     0.186040000000    -0.0866204  
O69      O      0.058600000000     0.346530000000     0.190620000000    -0.0883539  
O70      O      0.018380000000     0.314650000000     0.183820000000    -0.0836523  
O71      O      0.440060000000     0.137150000000     0.185530000000    -0.0866666  
O72      O      0.979510000000     0.170280000000     0.180390000000    -0.0927824  
O73      O      0.494770000000     0.037310000000     0.718830000000    -0.384556   
O74      O      0.501050000000     0.444020000000     0.721650000000    -0.390868   
O75      O      0.451150000000     0.487100000000     0.719950000000    -0.387561   
O76      O      0.044500000000     0.992100000000     0.720470000000    -0.384548   
O77      O      0.044320000000     0.991460000000     0.772090000000    -0.384029   
O78      O      0.450550000000     0.495600000000     0.770840000000    -0.386041   
O79      O      0.994910000000     0.445490000000     0.772840000000    -0.383876   
O80      O      0.000210000000     0.039190000000     0.770090000000    -0.37468    
O81      O      0.473850000000     0.194950000000     0.739770000000    -0.368863   
O82      O      0.474030000000     0.288030000000     0.751530000000    -0.388063   
O83      O      0.473910000000     0.247010000000     0.699290000000    -0.379631   
O84      O      0.474050000000     0.235680000000     0.792260000000    -0.37584    
O85      O      0.024770000000     0.244800000000     0.792410000000    -0.382554   
O86      O      0.024550000000     0.237580000000     0.698900000000    -0.375002   
O87      O      0.024700000000     0.288020000000     0.742140000000    -0.369293   
O88      O      0.024560000000     0.194590000000     0.748920000000    -0.38144    
O89      O      0.243840000000     0.019000000000     0.698980000000    -0.379192   
O90      O      0.251230000000     0.018670000000     0.792560000000    -0.375443   
O91      O      0.294410000000     0.019050000000     0.743540000000    -0.377379   
O92      O      0.200710000000     0.018630000000     0.749630000000    -0.385329   
O93      O      0.200820000000     0.467460000000     0.742830000000    -0.378099   
O94      O      0.294410000000     0.467470000000     0.745600000000    -0.373061   
O95      O      0.245450000000     0.467390000000     0.792230000000    -0.387683   
O96      O      0.249400000000     0.467740000000     0.698530000000    -0.376206   
O97      O      0.267060000000     0.988580000000     0.542170000000    -0.375467   
O98      O      0.268620000000     0.001540000000     0.949550000000    -0.381508   
O99      O      0.269110000000     0.041570000000     0.002620000000    -0.376163   
O100     O      0.266370000000     0.449000000000     0.489160000000    -0.383496   
O101     O      0.215510000000     0.449480000000     0.497110000000    -0.384109   
O102     O      0.218560000000     0.043300000000     0.992960000000    -0.384034   
O103     O      0.217740000000     0.493740000000     0.948220000000    -0.387741   
O104     O      0.216550000000     0.498840000000     0.542120000000    -0.385433   
O105     O      0.001640000000     0.213580000000     0.542330000000    -0.373756   
O106     O      0.995740000000     0.214170000000     0.948760000000    -0.38173    
O107     O      0.045710000000     0.214290000000     0.992120000000    -0.370276   
O108     O      0.451880000000     0.213350000000     0.497160000000    -0.383313   
O109     O      0.452350000000     0.264820000000     0.494070000000    -0.386832   
O110     O      0.045400000000     0.265370000000     0.999480000000    -0.388837   
O111     O      0.502040000000     0.265350000000     0.949240000000    -0.387214   
O112     O      0.495380000000     0.264800000000     0.542710000000    -0.37853    
O113     O      0.252130000000     0.200910000000     0.523730000000    -0.371674   
O114     O      0.243870000000     0.294460000000     0.517790000000    -0.379536   
O115     O      0.201820000000     0.245300000000     0.521170000000    -0.388701   
O116     O      0.295640000000     0.251130000000     0.520100000000    -0.365619   
O117     O      0.295520000000     0.240560000000     0.969580000000    -0.376898   
O118     O      0.201800000000     0.244290000000     0.969560000000    -0.38889    
O119     O      0.250070000000     0.290940000000     0.966690000000    -0.367986   
O120     O      0.246110000000     0.197240000000     0.972660000000    -0.389813   
O121     O      0.331160000000     0.309580000000     0.484550000000    -0.0526597  
O122     O      0.341800000000     0.309600000000     0.535820000000    -0.0687944  
O123     O      0.105420000000     0.183590000000     0.936580000000    -0.095644   
O124     O      0.070680000000     0.221760000000     0.932570000000    -0.0910217  
O125     O      0.310820000000     0.332980000000     0.488210000000    -0.0499707  
O126     O      0.296790000000     0.330190000000     0.937910000000    -0.0796821  
O127     O      0.320480000000     0.144120000000     0.030970000000    -0.0919982  
O128     O      0.284530000000     0.164360000000     0.562300000000    -0.0790706  
O129     O      0.311290000000     0.511510000000     0.819470000000    -0.0966021  
O130     O      0.304870000000     0.052750000000     0.850160000000    -0.0942752  
O131     O      0.256440000000     0.429020000000     0.566110000000    -0.0847797  
O132     O      0.296710000000     0.430760000000     0.598610000000    -0.0776246  
O133     O      0.440240000000     0.182360000000     0.850150000000    -0.0910137  
O134     O      0.979940000000     0.176770000000     0.817390000000    -0.0942901  
O135     O      0.442680000000     0.300550000000     0.599320000000    -0.0828823  
O136     O      0.935500000000     0.260200000000     0.567640000000    -0.0855936  
O137     O      0.175980000000     0.475940000000     0.682590000000    -0.0915353  
O138     O      0.143200000000     0.436060000000     0.686450000000    -0.088447   
O139     O      0.351990000000     0.423500000000     0.699600000000    -0.0856964  
O140     O      0.319590000000     0.461550000000     0.686040000000    -0.0867664  
O141     O      0.058600000000     0.346530000000     0.690620000000    -0.0885798  
O142     O      0.018380000000     0.314650000000     0.683820000000    -0.0838098  
O143     O      0.440060000000     0.137150000000     0.685540000000    -0.086958   
O144     O      0.979510000000     0.170280000000     0.680390000000    -0.0930076  
O145     O      0.494770000000     0.537310000000     0.218830000000    -0.387738   
O146     O      0.501050000000     0.944020000000     0.221650000000    -0.390323   
O147     O      0.451150000000     0.987100000000     0.219950000000    -0.387761   
O148     O      0.044500000000     0.492100000000     0.220470000000    -0.383921   
O149     O      0.044320000000     0.491460000000     0.272090000000    -0.38302    
O150     O      0.450550000000     0.995590000000     0.270840000000    -0.387212   
O151     O      0.994910000000     0.945490000000     0.272830000000    -0.383559   
O152     O      0.000210000000     0.539190000000     0.270090000000    -0.377786   
O153     O      0.473850000000     0.694940000000     0.239770000000    -0.368845   
O154     O      0.474030000000     0.788030000000     0.251540000000    -0.387998   
O155     O      0.473910000000     0.747010000000     0.199290000000    -0.379609   
O156     O      0.474050000000     0.735680000000     0.292260000000    -0.375819   
O157     O      0.024770000000     0.744800000000     0.292410000000    -0.382559   
O158     O      0.024550000000     0.737580000000     0.198900000000    -0.374988   
O159     O      0.024700000000     0.788020000000     0.242140000000    -0.369278   
O160     O      0.024560000000     0.694590000000     0.248920000000    -0.381493   
O161     O      0.243840000000     0.519000000000     0.198980000000    -0.383245   
O162     O      0.251230000000     0.518670000000     0.292560000000    -0.379234   
O163     O      0.294410000000     0.519050000000     0.243540000000    -0.381285   
O164     O      0.200710000000     0.518630000000     0.249630000000    -0.389311   
O165     O      0.200820000000     0.967470000000     0.242830000000    -0.377011   
O166     O      0.294410000000     0.967470000000     0.245600000000    -0.371958   
O167     O      0.245450000000     0.967390000000     0.292230000000    -0.38665    
O168     O      0.249400000000     0.967740000000     0.198530000000    -0.374864   
O169     O      0.267060000000     0.488580000000     0.042170000000    -0.371697   
O170     O      0.268620000000     0.501540000000     0.449550000000    -0.389158   
O171     O      0.269110000000     0.541570000000     0.502620000000    -0.387754   
O172     O      0.266370000000     0.949000000000     0.989160000000    -0.382739   
O173     O      0.215510000000     0.949480000000     0.997110000000    -0.384958   
O174     O      0.218560000000     0.543300000000     0.492960000000    -0.388199   
O175     O      0.217740000000     0.993740000000     0.448220000000    -0.387458   
O176     O      0.216550000000     0.998830000000     0.042120000000    -0.382616   
O177     O      0.001640000000     0.713580000000     0.042330000000    -0.370042   
O178     O      0.995740000000     0.714170000000     0.448760000000    -0.38242    
O179     O      0.045710000000     0.714290000000     0.492120000000    -0.369873   
O180     O      0.451880000000     0.713350000000     0.997160000000    -0.384101   
O181     O      0.452350000000     0.764820000000     0.994070000000    -0.388132   
O182     O      0.045400000000     0.765370000000     0.499480000000    -0.387633   
O183     O      0.502040000000     0.765350000000     0.449240000000    -0.387791   
O184     O      0.495380000000     0.764800000000     0.042710000000    -0.374874   
O185     O      0.252130000000     0.700910000000     0.023730000000    -0.365988   
O186     O      0.243870000000     0.794460000000     0.017790000000    -0.374811   
O187     O      0.201820000000     0.745300000000     0.021170000000    -0.383987   
O188     O      0.295640000000     0.751130000000     0.020100000000    -0.360789   
O189     O      0.295520000000     0.740560000000     0.469590000000    -0.3785     
O190     O      0.201800000000     0.744290000000     0.469560000000    -0.390283   
O191     O      0.250070000000     0.790940000000     0.466690000000    -0.369464   
O192     O      0.246110000000     0.697240000000     0.472660000000    -0.392267   
O193     O      0.331160000000     0.809580000000     0.984550000000    -0.0559639  
O194     O      0.341800000000     0.809600000000     0.035820000000    -0.067577   
O195     O      0.105420000000     0.683590000000     0.436580000000    -0.0954415  
O196     O      0.070680000000     0.721760000000     0.432570000000    -0.0909822  
O197     O      0.310820000000     0.832980000000     0.988210000000    -0.0513758  
O198     O      0.296790000000     0.830190000000     0.437910000000    -0.0795912  
O199     O      0.320480000000     0.644120000000     0.530970000000    -0.09433    
O200     O      0.284530000000     0.664360000000     0.062300000000    -0.0787514  
O201     O      0.311290000000     0.011510000000     0.319470000000    -0.0946506  
O202     O      0.304870000000     0.552750000000     0.350160000000    -0.0945472  
O203     O      0.256440000000     0.929020000000     0.066110000000    -0.0833567  
O204     O      0.296710000000     0.930760000000     0.098610000000    -0.0772217  
O205     O      0.440240000000     0.682360000000     0.350150000000    -0.0910574  
O206     O      0.979940000000     0.676770000000     0.317390000000    -0.0944025  
O207     O      0.442680000000     0.800550000000     0.099320000000    -0.0823519  
O208     O      0.935500000000     0.760200000000     0.067640000000    -0.0843484  
O209     O      0.175980000000     0.975940000000     0.182590000000    -0.0925293  
O210     O      0.143200000000     0.936060000000     0.186450000000    -0.0885139  
O211     O      0.351990000000     0.923500000000     0.199600000000    -0.0857406  
O212     O      0.319590000000     0.961550000000     0.186040000000    -0.08722    
O213     O      0.058600000000     0.846530000000     0.190620000000    -0.0884523  
O214     O      0.018380000000     0.814650000000     0.183820000000    -0.0836879  
O215     O      0.440060000000     0.637150000000     0.185530000000    -0.0870977  
O216     O      0.979510000000     0.670280000000     0.180390000000    -0.0929605  
O217     O      0.494770000000     0.537310000000     0.718830000000    -0.387854   
O218     O      0.501050000000     0.944020000000     0.721650000000    -0.390353   
O219     O      0.451150000000     0.987100000000     0.719950000000    -0.387962   
O220     O      0.044500000000     0.492100000000     0.720470000000    -0.384028   
O221     O      0.044320000000     0.491460000000     0.772090000000    -0.383065   
O222     O      0.450550000000     0.995590000000     0.770840000000    -0.387172   
O223     O      0.994910000000     0.945490000000     0.772840000000    -0.383467   
O224     O      0.000210000000     0.539190000000     0.770090000000    -0.377823   
O225     O      0.473850000000     0.694940000000     0.739770000000    -0.368847   
O226     O      0.474030000000     0.788030000000     0.751530000000    -0.388053   
O227     O      0.473910000000     0.747010000000     0.699290000000    -0.379627   
O228     O      0.474050000000     0.735680000000     0.792260000000    -0.375836   
O229     O      0.024770000000     0.744800000000     0.792410000000    -0.382569   
O230     O      0.024550000000     0.737580000000     0.698900000000    -0.37502    
O231     O      0.024700000000     0.788020000000     0.742140000000    -0.369292   
O232     O      0.024560000000     0.694590000000     0.748920000000    -0.381509   
O233     O      0.243840000000     0.519000000000     0.698980000000    -0.383297   
O234     O      0.251230000000     0.518670000000     0.792560000000    -0.379235   
O235     O      0.294410000000     0.519050000000     0.743540000000    -0.381307   
O236     O      0.200710000000     0.518630000000     0.749630000000    -0.389336   
O237     O      0.200820000000     0.967470000000     0.742830000000    -0.377015   
O238     O      0.294410000000     0.967470000000     0.745600000000    -0.371956   
O239     O      0.245450000000     0.967390000000     0.792230000000    -0.386663   
O240     O      0.249400000000     0.967740000000     0.698530000000    -0.374876   
O241     O      0.267060000000     0.488580000000     0.542170000000    -0.37562    
O242     O      0.268620000000     0.501540000000     0.949550000000    -0.388472   
O243     O      0.269110000000     0.541570000000     0.002620000000    -0.379478   
O244     O      0.266370000000     0.949000000000     0.489160000000    -0.382904   
O245     O      0.215510000000     0.949480000000     0.497110000000    -0.38364    
O246     O      0.218560000000     0.543300000000     0.992960000000    -0.38721    
O247     O      0.217740000000     0.993740000000     0.948220000000    -0.386929   
O248     O      0.216550000000     0.998830000000     0.542120000000    -0.386415   
O249     O      0.001640000000     0.713580000000     0.542330000000    -0.373869   
O250     O      0.995740000000     0.714170000000     0.948760000000    -0.381825   
O251     O      0.045710000000     0.714290000000     0.992120000000    -0.370383   
O252     O      0.451880000000     0.713350000000     0.497160000000    -0.383423   
O253     O      0.452350000000     0.764820000000     0.494070000000    -0.386897   
O254     O      0.045400000000     0.765370000000     0.999480000000    -0.388902   
O255     O      0.502040000000     0.765350000000     0.949240000000    -0.387288   
O256     O      0.495380000000     0.764800000000     0.542710000000    -0.378588   
O257     O      0.252130000000     0.700910000000     0.523730000000    -0.371769   
O258     O      0.243870000000     0.794460000000     0.517790000000    -0.379544   
O259     O      0.201820000000     0.745300000000     0.521170000000    -0.388728   
O260     O      0.295640000000     0.751130000000     0.520100000000    -0.365617   
O261     O      0.295520000000     0.740560000000     0.969580000000    -0.376902   
O262     O      0.201800000000     0.744290000000     0.969560000000    -0.388904   
O263     O      0.250070000000     0.790940000000     0.966690000000    -0.368075   
O264     O      0.246110000000     0.697240000000     0.972660000000    -0.389819   
O265     O      0.331160000000     0.809580000000     0.484550000000    -0.0527099  
O266     O      0.341800000000     0.809600000000     0.535820000000    -0.0688671  
O267     O      0.105420000000     0.683590000000     0.936580000000    -0.0959628  
O268     O      0.070680000000     0.721760000000     0.932570000000    -0.0911088  
O269     O      0.310820000000     0.832980000000     0.488210000000    -0.0500394  
O270     O      0.296790000000     0.830190000000     0.937910000000    -0.0798174  
O271     O      0.320480000000     0.644120000000     0.030970000000    -0.0923647  
O272     O      0.284530000000     0.664360000000     0.562300000000    -0.0792734  
O273     O      0.311290000000     0.011510000000     0.819470000000    -0.0947271  
O274     O      0.304870000000     0.552750000000     0.850160000000    -0.0947742  
O275     O      0.256440000000     0.929020000000     0.566110000000    -0.0848168  
O276     O      0.296710000000     0.930760000000     0.598610000000    -0.0779793  
O277     O      0.440240000000     0.682360000000     0.850150000000    -0.0912258  
O278     O      0.979940000000     0.676770000000     0.817390000000    -0.0944542  
O279     O      0.442680000000     0.800550000000     0.599320000000    -0.0829933  
O280     O      0.935500000000     0.760200000000     0.567640000000    -0.0856516  
O281     O      0.175980000000     0.975940000000     0.682590000000    -0.0927126  
O282     O      0.143200000000     0.936060000000     0.686450000000    -0.0887556  
O283     O      0.351990000000     0.923500000000     0.699600000000    -0.0858991  
O284     O      0.319590000000     0.961550000000     0.686040000000    -0.0873667  
O285     O      0.058600000000     0.846530000000     0.690620000000    -0.0886784  
O286     O      0.018380000000     0.814650000000     0.683820000000    -0.0838456  
O287     O      0.440060000000     0.637150000000     0.685540000000    -0.087391   
O288     O      0.979510000000     0.670280000000     0.680390000000    -0.0931868  
O289     O      0.994770000000     0.037310000000     0.218830000000    -0.382041   
O290     O      0.001050000000     0.444020000000     0.221650000000    -0.378123   
O291     O      0.951140000000     0.487100000000     0.219950000000    -0.38631    
O292     O      0.544500000000     0.992100000000     0.220470000000    -0.390328   
O293     O      0.544320000000     0.991460000000     0.272090000000    -0.389824   
O294     O      0.950550000000     0.495600000000     0.270840000000    -0.385114   
O295     O      0.494910000000     0.445490000000     0.272830000000    -0.386296   
O296     O      0.500210000000     0.039190000000     0.270090000000    -0.387345   
O297     O      0.973850000000     0.194950000000     0.239770000000    -0.366579   
O298     O      0.974030000000     0.288030000000     0.251540000000    -0.386104   
O299     O      0.973910000000     0.247010000000     0.199290000000    -0.377622   
O300     O      0.974050000000     0.235680000000     0.292260000000    -0.373665   
O301     O      0.524770000000     0.244800000000     0.292410000000    -0.389592   
O302     O      0.524550000000     0.237580000000     0.198900000000    -0.381872   
O303     O      0.524700000000     0.288020000000     0.242140000000    -0.375999   
O304     O      0.524560000000     0.194590000000     0.248920000000    -0.38855    
O305     O      0.743840000000     0.019000000000     0.198980000000    -0.379191   
O306     O      0.751230000000     0.018670000000     0.292560000000    -0.375473   
O307     O      0.794400000000     0.019050000000     0.243540000000    -0.377395   
O308     O      0.700710000000     0.018630000000     0.249630000000    -0.385412   
O309     O      0.700820000000     0.467460000000     0.242830000000    -0.378146   
O310     O      0.794410000000     0.467470000000     0.245600000000    -0.373039   
O311     O      0.745450000000     0.467390000000     0.292230000000    -0.387713   
O312     O      0.749400000000     0.467740000000     0.198530000000    -0.376191   
O313     O      0.767060000000     0.988580000000     0.042170000000    -0.371611   
O314     O      0.768620000000     0.001540000000     0.449550000000    -0.382207   
O315     O      0.769110000000     0.041570000000     0.502620000000    -0.384477   
O316     O      0.766370000000     0.449000000000     0.989160000000    -0.3834     
O317     O      0.715510000000     0.449480000000     0.997110000000    -0.385599   
O318     O      0.718560000000     0.043300000000     0.492960000000    -0.385165   
O319     O      0.717730000000     0.493740000000     0.448220000000    -0.388287   
O320     O      0.716550000000     0.498840000000     0.042120000000    -0.381798   
O321     O      0.501640000000     0.213580000000     0.042330000000    -0.382565   
O322     O      0.495740000000     0.214170000000     0.448760000000    -0.384605   
O323     O      0.545720000000     0.214290000000     0.492120000000    -0.375453   
O324     O      0.951880000000     0.213350000000     0.997160000000    -0.383011   
O325     O      0.952350000000     0.264820000000     0.994070000000    -0.386996   
O326     O      0.545400000000     0.265370000000     0.499480000000    -0.393456   
O327     O      0.002040000000     0.265350000000     0.449240000000    -0.37516    
O328     O      0.995380000000     0.264800000000     0.042710000000    -0.372514   
O329     O      0.752130000000     0.200910000000     0.023730000000    -0.365921   
O330     O      0.743870000000     0.294460000000     0.017790000000    -0.374817   
O331     O      0.701820000000     0.245300000000     0.021170000000    -0.384013   
O332     O      0.795640000000     0.251130000000     0.020100000000    -0.360799   
O333     O      0.795520000000     0.240560000000     0.469590000000    -0.378602   
O334     O      0.701800000000     0.244290000000     0.469560000000    -0.390236   
O335     O      0.750070000000     0.290940000000     0.466690000000    -0.369405   
O336     O      0.746110000000     0.197240000000     0.472660000000    -0.39227    
O337     O      0.831160000000     0.309580000000     0.984550000000    -0.0560487  
O338     O      0.841800000000     0.309600000000     0.035820000000    -0.0676955  
O339     O      0.605420000000     0.183590000000     0.436580000000    -0.0962527  
O340     O      0.570680000000     0.221760000000     0.432570000000    -0.092961   
O341     O      0.810820000000     0.332980000000     0.988210000000    -0.0513969  
O342     O      0.796790000000     0.330190000000     0.437910000000    -0.0796142  
O343     O      0.820480000000     0.144120000000     0.530970000000    -0.0942021  
O344     O      0.784530000000     0.164360000000     0.062300000000    -0.0786443  
O345     O      0.811290000000     0.511510000000     0.319470000000    -0.096654   
O346     O      0.804870000000     0.052750000000     0.350160000000    -0.0942463  
O347     O      0.756440000000     0.429020000000     0.066110000000    -0.0834167  
O348     O      0.796710000000     0.430760000000     0.098610000000    -0.0770851  
O349     O      0.940240000000     0.182360000000     0.350150000000    -0.0915217  
O350     O      0.479940000000     0.176770000000     0.317390000000    -0.0918607  
O351     O      0.942680000000     0.300550000000     0.099320000000    -0.0834263  
O352     O      0.435500000000     0.260200000000     0.067640000000    -0.0840633  
O353     O      0.675980000000     0.475940000000     0.182590000000    -0.0916009  
O354     O      0.643200000000     0.436060000000     0.186450000000    -0.0887323  
O355     O      0.851990000000     0.423500000000     0.199600000000    -0.085862   
O356     O      0.819590000000     0.461550000000     0.186040000000    -0.0867272  
O357     O      0.558600000000     0.346530000000     0.190620000000    -0.0893608  
O358     O      0.518380000000     0.314650000000     0.183820000000    -0.0875403  
O359     O      0.940070000000     0.137150000000     0.185530000000    -0.087285   
O360     O      0.479510000000     0.170280000000     0.180390000000    -0.0906242  
O361     O      0.994770000000     0.037310000000     0.718830000000    -0.382148   
O362     O      0.001050000000     0.444020000000     0.721650000000    -0.378138   
O363     O      0.951140000000     0.487100000000     0.719950000000    -0.386511   
O364     O      0.544500000000     0.992100000000     0.720470000000    -0.390443   
O365     O      0.544320000000     0.991460000000     0.772090000000    -0.389873   
O366     O      0.950550000000     0.495600000000     0.770840000000    -0.385073   
O367     O      0.494910000000     0.445490000000     0.772840000000    -0.386205   
O368     O      0.500210000000     0.039190000000     0.770090000000    -0.387388   
O369     O      0.973850000000     0.194950000000     0.739770000000    -0.366579   
O370     O      0.974030000000     0.288030000000     0.751530000000    -0.386157   
O371     O      0.973910000000     0.247010000000     0.699290000000    -0.377638   
O372     O      0.974050000000     0.235680000000     0.792260000000    -0.373681   
O373     O      0.524770000000     0.244800000000     0.792410000000    -0.389604   
O374     O      0.524550000000     0.237580000000     0.698900000000    -0.381915   
O375     O      0.524700000000     0.288020000000     0.742140000000    -0.376019   
O376     O      0.524560000000     0.194590000000     0.748920000000    -0.388572   
O377     O      0.743840000000     0.019000000000     0.698980000000    -0.379233   
O378     O      0.751230000000     0.018670000000     0.792560000000    -0.375471   
O379     O      0.794400000000     0.019050000000     0.743540000000    -0.377411   
O380     O      0.700710000000     0.018630000000     0.749630000000    -0.385432   
O381     O      0.700820000000     0.467460000000     0.742830000000    -0.378151   
O382     O      0.794410000000     0.467470000000     0.745600000000    -0.373038   
O383     O      0.745450000000     0.467390000000     0.792230000000    -0.387728   
O384     O      0.749400000000     0.467740000000     0.698530000000    -0.376206   
O385     O      0.767060000000     0.988580000000     0.542170000000    -0.375534   
O386     O      0.768620000000     0.001540000000     0.949550000000    -0.381526   
O387     O      0.769110000000     0.041570000000     0.002620000000    -0.376229   
O388     O      0.766370000000     0.449000000000     0.489160000000    -0.383569   
O389     O      0.715510000000     0.449480000000     0.497110000000    -0.38428    
O390     O      0.718560000000     0.043300000000     0.992960000000    -0.384184   
O391     O      0.717730000000     0.493740000000     0.948220000000    -0.387756   
O392     O      0.716550000000     0.498840000000     0.542120000000    -0.385607   
O393     O      0.501640000000     0.213580000000     0.542330000000    -0.386438   
O394     O      0.495740000000     0.214170000000     0.948760000000    -0.384005   
O395     O      0.545720000000     0.214290000000     0.992120000000    -0.375953   
O396     O      0.951880000000     0.213350000000     0.497160000000    -0.382333   
O397     O      0.952350000000     0.264820000000     0.494070000000    -0.38576    
O398     O      0.545400000000     0.265370000000     0.999480000000    -0.394718   
O399     O      0.002040000000     0.265350000000     0.949240000000    -0.374674   
O400     O      0.995380000000     0.264800000000     0.542710000000    -0.376212   
O401     O      0.752130000000     0.200910000000     0.523730000000    -0.371697   
O402     O      0.743870000000     0.294460000000     0.517790000000    -0.379554   
O403     O      0.701820000000     0.245300000000     0.521170000000    -0.388758   
O404     O      0.795640000000     0.251130000000     0.520100000000    -0.365626   
O405     O      0.795520000000     0.240560000000     0.969580000000    -0.377004   
O406     O      0.701800000000     0.244290000000     0.969560000000    -0.388857   
O407     O      0.750070000000     0.290940000000     0.966690000000    -0.368016   
O408     O      0.746110000000     0.197240000000     0.972660000000    -0.389823   
O409     O      0.831160000000     0.309580000000     0.484550000000    -0.052796   
O410     O      0.841800000000     0.309600000000     0.535820000000    -0.0689865  
O411     O      0.605420000000     0.183590000000     0.936580000000    -0.0967733  
O412     O      0.570680000000     0.221760000000     0.932570000000    -0.0930859  
O413     O      0.810820000000     0.332980000000     0.488210000000    -0.0500604  
O414     O      0.796790000000     0.330190000000     0.937910000000    -0.0798404  
O415     O      0.820480000000     0.144120000000     0.030970000000    -0.0922404  
O416     O      0.784530000000     0.164360000000     0.562300000000    -0.0791653  
O417     O      0.811290000000     0.511510000000     0.819470000000    -0.0967329  
O418     O      0.804870000000     0.052750000000     0.850160000000    -0.0944722  
O419     O      0.756440000000     0.429020000000     0.566110000000    -0.0848801  
O420     O      0.796710000000     0.430760000000     0.598610000000    -0.0778435  
O421     O      0.940240000000     0.182360000000     0.850150000000    -0.0916892  
O422     O      0.479940000000     0.176770000000     0.817390000000    -0.0919123  
O423     O      0.942680000000     0.300550000000     0.599320000000    -0.0840692  
O424     O      0.435500000000     0.260200000000     0.567640000000    -0.0853642  
O425     O      0.675980000000     0.475940000000     0.682590000000    -0.0917834  
O426     O      0.643200000000     0.436060000000     0.686450000000    -0.0889754  
O427     O      0.851990000000     0.423500000000     0.699600000000    -0.0860209  
O428     O      0.819590000000     0.461550000000     0.686040000000    -0.0868735  
O429     O      0.558600000000     0.346530000000     0.690620000000    -0.0895897  
O430     O      0.518380000000     0.314650000000     0.683820000000    -0.0877062  
O431     O      0.940070000000     0.137150000000     0.685540000000    -0.0875775  
O432     O      0.479510000000     0.170280000000     0.680390000000    -0.0908458  
O433     O      0.994770000000     0.537310000000     0.218830000000    -0.385322   
O434     O      0.001050000000     0.944020000000     0.221650000000    -0.377625   
O435     O      0.951140000000     0.987100000000     0.219950000000    -0.386714   
O436     O      0.544500000000     0.492100000000     0.220470000000    -0.389818   
O437     O      0.544320000000     0.491460000000     0.272090000000    -0.388869   
O438     O      0.950550000000     0.995590000000     0.270840000000    -0.386246   
O439     O      0.494910000000     0.945490000000     0.272830000000    -0.385882   
O440     O      0.500210000000     0.539190000000     0.270090000000    -0.390534   
O441     O      0.973850000000     0.694940000000     0.239770000000    -0.366559   
O442     O      0.974030000000     0.788030000000     0.251540000000    -0.386093   
O443     O      0.973910000000     0.747010000000     0.199290000000    -0.377617   
O444     O      0.974050000000     0.735680000000     0.292260000000    -0.373659   
O445     O      0.524770000000     0.744800000000     0.292410000000    -0.389613   
O446     O      0.524550000000     0.737580000000     0.198900000000    -0.381897   
O447     O      0.524700000000     0.788020000000     0.242140000000    -0.376      
O448     O      0.524560000000     0.694590000000     0.248920000000    -0.388631   
O449     O      0.743840000000     0.519000000000     0.198980000000    -0.383293   
O450     O      0.751230000000     0.518670000000     0.292560000000    -0.379268   
O451     O      0.794400000000     0.519050000000     0.243540000000    -0.381319   
O452     O      0.700710000000     0.518630000000     0.249630000000    -0.389422   
O453     O      0.700820000000     0.967470000000     0.242830000000    -0.377062   
O454     O      0.794410000000     0.967470000000     0.245600000000    -0.371934   
O455     O      0.745450000000     0.967390000000     0.292230000000    -0.386693   
O456     O      0.749400000000     0.967740000000     0.198530000000    -0.374862   
O457     O      0.767060000000     0.488580000000     0.042170000000    -0.37176    
O458     O      0.768620000000     0.501540000000     0.449550000000    -0.389186   
O459     O      0.769110000000     0.541570000000     0.502620000000    -0.387835   
O460     O      0.766370000000     0.949000000000     0.989160000000    -0.38281    
O461     O      0.715510000000     0.949480000000     0.997110000000    -0.38513    
O462     O      0.718560000000     0.543300000000     0.492960000000    -0.388356   
O463     O      0.717730000000     0.993740000000     0.448220000000    -0.387473   
O464     O      0.716550000000     0.998830000000     0.042120000000    -0.382784   
O465     O      0.501640000000     0.713580000000     0.042330000000    -0.382688   
O466     O      0.495740000000     0.714170000000     0.448760000000    -0.384703   
O467     O      0.545720000000     0.714290000000     0.492120000000    -0.375568   
O468     O      0.951880000000     0.713350000000     0.997160000000    -0.383121   
O469     O      0.952350000000     0.764820000000     0.994070000000    -0.38706    
O470     O      0.545400000000     0.765370000000     0.499480000000    -0.393525   
O471     O      0.002040000000     0.765350000000     0.449240000000    -0.375225   
O472     O      0.995380000000     0.764800000000     0.042710000000    -0.372564   
O473     O      0.752130000000     0.700910000000     0.023730000000    -0.366003   
O474     O      0.743870000000     0.794460000000     0.017790000000    -0.374823   
O475     O      0.701820000000     0.745300000000     0.021170000000    -0.384034   
O476     O      0.795640000000     0.751130000000     0.020100000000    -0.360791   
O477     O      0.795520000000     0.740560000000     0.469590000000    -0.378607   
O478     O      0.701800000000     0.744290000000     0.469560000000    -0.390252   
O479     O      0.750070000000     0.790940000000     0.466690000000    -0.369496   
O480     O      0.746110000000     0.697240000000     0.472660000000    -0.39228    
O481     O      0.831160000000     0.809580000000     0.984550000000    -0.0561005  
O482     O      0.841800000000     0.809600000000     0.035820000000    -0.0677673  
O483     O      0.605420000000     0.683590000000     0.436580000000    -0.096574   
O484     O      0.570680000000     0.721760000000     0.432570000000    -0.0930508  
O485     O      0.810820000000     0.832980000000     0.988210000000    -0.0514648  
O486     O      0.796790000000     0.830190000000     0.437910000000    -0.0797496  
O487     O      0.820480000000     0.644120000000     0.530970000000    -0.0945756  
O488     O      0.784530000000     0.664360000000     0.062300000000    -0.0788459  
O489     O      0.811290000000     0.011510000000     0.319470000000    -0.0947781  
O490     O      0.804870000000     0.552750000000     0.350160000000    -0.0947456  
O491     O      0.756440000000     0.929020000000     0.066110000000    -0.0834546  
O492     O      0.796710000000     0.930760000000     0.098610000000    -0.0774388  
O493     O      0.940240000000     0.682360000000     0.350150000000    -0.0917348  
O494     O      0.479940000000     0.676770000000     0.317390000000    -0.0920206  
O495     O      0.942680000000     0.800550000000     0.099320000000    -0.0835358  
O496     O      0.435500000000     0.760200000000     0.067640000000    -0.0841192  
O497     O      0.675980000000     0.975940000000     0.182590000000    -0.0927774  
O498     O      0.643200000000     0.936060000000     0.186450000000    -0.0890407  
O499     O      0.851990000000     0.923500000000     0.199600000000    -0.0860642  
O500     O      0.819590000000     0.961550000000     0.186040000000    -0.0873262  
O501     O      0.558600000000     0.846530000000     0.190620000000    -0.0894593  
O502     O      0.518380000000     0.814650000000     0.183820000000    -0.0875781  
O503     O      0.940070000000     0.637150000000     0.185530000000    -0.0877173  
O504     O      0.479510000000     0.670280000000     0.180390000000    -0.0907997  
O505     O      0.994770000000     0.537310000000     0.718830000000    -0.385436   
O506     O      0.001050000000     0.944020000000     0.721650000000    -0.37764    
O507     O      0.951140000000     0.987100000000     0.719950000000    -0.386914   
O508     O      0.544500000000     0.492100000000     0.720470000000    -0.389933   
O509     O      0.544320000000     0.491460000000     0.772090000000    -0.388918   
O510     O      0.950550000000     0.995590000000     0.770840000000    -0.386205   
O511     O      0.494910000000     0.945490000000     0.772840000000    -0.385791   
O512     O      0.500210000000     0.539190000000     0.770090000000    -0.390581   
O513     O      0.973850000000     0.694940000000     0.739770000000    -0.36656    
O514     O      0.974030000000     0.788030000000     0.751530000000    -0.386146   
O515     O      0.973910000000     0.747010000000     0.699290000000    -0.377632   
O516     O      0.974050000000     0.735680000000     0.792260000000    -0.373674   
O517     O      0.524770000000     0.744800000000     0.792410000000    -0.389625   
O518     O      0.524550000000     0.737580000000     0.698900000000    -0.38194    
O519     O      0.524700000000     0.788020000000     0.742140000000    -0.376021   
O520     O      0.524560000000     0.694590000000     0.748920000000    -0.388653   
O521     O      0.743840000000     0.519000000000     0.698980000000    -0.383345   
O522     O      0.751230000000     0.518670000000     0.792560000000    -0.379269   
O523     O      0.794400000000     0.519050000000     0.743540000000    -0.381342   
O524     O      0.700710000000     0.518630000000     0.749630000000    -0.389447   
O525     O      0.700820000000     0.967470000000     0.742830000000    -0.377065   
O526     O      0.794410000000     0.967470000000     0.745600000000    -0.371932   
O527     O      0.745450000000     0.967390000000     0.792230000000    -0.386707   
O528     O      0.749400000000     0.967740000000     0.698530000000    -0.374874   
O529     O      0.767060000000     0.488580000000     0.542170000000    -0.375688   
O530     O      0.768620000000     0.501540000000     0.949550000000    -0.3885     
O531     O      0.769110000000     0.541570000000     0.002620000000    -0.379548   
O532     O      0.766370000000     0.949000000000     0.489160000000    -0.382976   
O533     O      0.715510000000     0.949480000000     0.497110000000    -0.38381    
O534     O      0.718560000000     0.543300000000     0.992960000000    -0.387367   
O535     O      0.717730000000     0.993740000000     0.948220000000    -0.386944   
O536     O      0.716550000000     0.998830000000     0.542120000000    -0.38659    
O537     O      0.501640000000     0.713580000000     0.542330000000    -0.386568   
O538     O      0.495740000000     0.714170000000     0.948760000000    -0.384103   
O539     O      0.545720000000     0.714290000000     0.992120000000    -0.376068   
O540     O      0.951880000000     0.713350000000     0.497160000000    -0.382442   
O541     O      0.952350000000     0.764820000000     0.494070000000    -0.385823   
O542     O      0.545400000000     0.765370000000     0.999480000000    -0.394786   
O543     O      0.002040000000     0.765350000000     0.949240000000    -0.374739   
O544     O      0.995380000000     0.764800000000     0.542710000000    -0.376266   
O545     O      0.752130000000     0.700910000000     0.523730000000    -0.371792   
O546     O      0.743870000000     0.794460000000     0.517790000000    -0.379563   
O547     O      0.701820000000     0.745300000000     0.521170000000    -0.388784   
O548     O      0.795640000000     0.751130000000     0.520100000000    -0.365623   
O549     O      0.795520000000     0.740560000000     0.969580000000    -0.377008   
O550     O      0.701800000000     0.744290000000     0.969560000000    -0.388871   
O551     O      0.750070000000     0.790940000000     0.966690000000    -0.368105   
O552     O      0.746110000000     0.697240000000     0.972660000000    -0.389828   
O553     O      0.831160000000     0.809580000000     0.484550000000    -0.052846   
O554     O      0.841800000000     0.809600000000     0.535820000000    -0.069059   
O555     O      0.605420000000     0.683590000000     0.936580000000    -0.0970953  
O556     O      0.570680000000     0.721760000000     0.932570000000    -0.0931757  
O557     O      0.810820000000     0.832980000000     0.488210000000    -0.050129   
O558     O      0.796790000000     0.830190000000     0.937910000000    -0.0799757  
O559     O      0.820480000000     0.644120000000     0.030970000000    -0.0926078  
O560     O      0.784530000000     0.664360000000     0.562300000000    -0.0793686  
O561     O      0.811290000000     0.011510000000     0.819470000000    -0.0948545  
O562     O      0.804870000000     0.552750000000     0.850160000000    -0.0949723  
O563     O      0.756440000000     0.929020000000     0.566110000000    -0.0849171  
O564     O      0.796710000000     0.930760000000     0.598610000000    -0.0781975  
O565     O      0.940240000000     0.682360000000     0.850150000000    -0.0919027  
O566     O      0.479940000000     0.676770000000     0.817390000000    -0.0920723  
O567     O      0.942680000000     0.800550000000     0.599320000000    -0.0841791  
O568     O      0.435500000000     0.760200000000     0.567640000000    -0.0854221  
O569     O      0.675980000000     0.975940000000     0.682590000000    -0.0929618  
O570     O      0.643200000000     0.936060000000     0.686450000000    -0.0892841  
O571     O      0.851990000000     0.923500000000     0.699600000000    -0.0862232  
O572     O      0.819590000000     0.961550000000     0.686040000000    -0.0874732  
O573     O      0.558600000000     0.846530000000     0.690620000000    -0.0896884  
O574     O      0.518380000000     0.814650000000     0.683820000000    -0.0877441  
O575     O      0.940070000000     0.637150000000     0.685540000000    -0.0880117  
O576     O      0.479510000000     0.670280000000     0.680390000000    -0.0910223  


