data_structure

_audit_creation_method RASPA-1.0
_audit_creation_date 2023-5-19
_audit_author_name 'Poobodin Mano'

_cell_length_a    43.2872
_cell_length_b    43.2555
_cell_length_c    43.2582
_cell_angle_alpha 90
_cell_angle_beta  90
_cell_angle_gamma 90
_cell_volume      80997.1

_symmetry_cell_setting          triclinic
_symmetry_space_group_name_Hall 'P 1'
_symmetry_space_group_name_H-M  'P 1'
_symmetry_Int_Tables_number     1

_symmetry_equiv_pos_as_xyz 'x,y,z'

loop_
_atom_site_label
_atom_site_type_symbol
_atom_site_fract_x
_atom_site_fract_y
_atom_site_fract_z
_atom_site_charge
C1       C      0.493820000000     0.057420000000     0.247050000000     0.40218    
C2       C      0.997030000000     0.434620000000     0.245360000000     0.397646   
C3       C      0.434170000000     0.994880000000     0.246610000000     0.401983   
C4       C      0.056930000000     0.497450000000     0.245280000000     0.402569   
C5       C      0.992250000000     0.184640000000     0.247930000000     0.40401    
C6       C      0.996200000000     0.307290000000     0.244090000000     0.403663   
C7       C      0.995220000000     0.248410000000     0.306660000000     0.399494   
C8       C      0.993060000000     0.243460000000     0.183710000000     0.398021   
C9       C      0.306880000000     0.997180000000     0.245290000000     0.398483   
C10      C      0.184310000000     0.998420000000     0.244040000000     0.398431   
C11      C      0.245220000000     0.997510000000     0.183100000000     0.394367   
C12      C      0.246250000000     0.998780000000     0.305890000000     0.39467    
C13      C      0.245380000000     0.997070000000     0.055740000000     0.398021   
C14      C      0.248260000000     0.499800000000     0.433060000000     0.40938    
C15      C      0.244780000000     0.059120000000     0.996140000000     0.403065   
C16      C      0.248870000000     0.436280000000     0.493120000000     0.408562   
C17      C      0.993580000000     0.243180000000     0.056510000000     0.408066   
C18      C      0.496850000000     0.249560000000     0.433820000000     0.408045   
C19      C      0.057320000000     0.248080000000     0.996300000000     0.407273   
C20      C      0.434440000000     0.244680000000     0.493610000000     0.403632   
C21      C      0.243080000000     0.186180000000     0.997010000000     0.403852   
C22      C      0.248680000000     0.308980000000     0.992860000000     0.400107   
C23      C      0.184540000000     0.249780000000     0.996210000000     0.400181   
C24      C      0.307280000000     0.244430000000     0.993300000000     0.403525   
C25      C      0.386610000000     0.266390000000     0.008540000000     0.0326376  
C26      C      0.387280000000     0.221250000000     0.477830000000     0.0161716  
C27      C      0.354490000000     0.265410000000     0.009340000000     0.0353737  
C28      C      0.354880000000     0.221690000000     0.476370000000     0.0685805  
C29      C      0.136670000000     0.264990000000     0.018690000000     0.0325302  
C30      C      0.137450000000     0.233830000000     0.473900000000     0.0158346  
C31      C      0.104350000000     0.265890000000     0.017350000000     0.035376   
C32      C      0.105260000000     0.232340000000     0.474070000000     0.0706399  
C33      C      0.235770000000     0.356760000000     0.969040000000     0.0294327  
C34      C      0.264440000000     0.356250000000     0.015480000000     0.0192611  
C35      C      0.234550000000     0.389020000000     0.970270000000     0.0321885  
C36      C      0.265390000000     0.388570000000     0.015520000000     0.0719576  
C37      C      0.266950000000     0.107050000000     0.510860000000     0.0305443  
C38      C      0.219230000000     0.106120000000     0.484380000000     0.0179341  
C39      C      0.265370000000     0.139240000000     0.512560000000     0.0325639  
C40      C      0.218920000000     0.138470000000     0.483600000000     0.0709443  
C41      C      0.263790000000     0.977920000000     0.353540000000     0.0309344  
C42      C      0.231950000000     0.022250000000     0.353250000000     0.0241676  
C43      C      0.265680000000     0.979530000000     0.385730000000     0.0243681  
C44      C      0.231810000000     0.022560000000     0.385570000000     0.0696336  
C45      C      0.229210000000     0.975410000000     0.135360000000     0.0284514  
C46      C      0.260060000000     0.020420000000     0.135660000000     0.0219488  
C47      C      0.228040000000     0.976480000000     0.103080000000     0.0316487  
C48      C      0.260810000000     0.020340000000     0.103360000000     0.0752232  
C49      C      0.019570000000     0.236350000000     0.354150000000     0.034256   
C50      C      0.472460000000     0.263880000000     0.354130000000     0.0185545  
C51      C      0.019130000000     0.235720000000     0.386360000000     0.0371822  
C52      C      0.473380000000     0.265730000000     0.386490000000     0.0692629  
C53      C      0.514420000000     0.226360000000     0.136060000000     0.0294999  
C54      C      0.469450000000     0.257260000000     0.136260000000     0.0163038  
C55      C      0.513290000000     0.224950000000     0.103800000000     0.0329332  
C56      C      0.469630000000     0.257970000000     0.103940000000     0.0710862  
C57      C      0.105070000000     0.482470000000     0.266810000000     0.0297455  
C58      C      0.103910000000     0.013650000000     0.222050000000     0.0225174  
C59      C      0.137260000000     0.481730000000     0.265440000000     0.0324917  
C60      C      0.136250000000     0.014870000000     0.221870000000     0.0737003  
C61      C      0.386330000000     0.480020000000     0.224300000000     0.0296189  
C62      C      0.386900000000     0.010610000000     0.269480000000     0.0232102  
C63      C      0.354110000000     0.479740000000     0.224910000000     0.0322519  
C64      C      0.354600000000     0.012350000000     0.268890000000     0.0735333  
C65      C      0.012690000000     0.386950000000     0.222800000000     0.0328687  
C66      C      0.482400000000     0.387100000000     0.268190000000     0.016708   
C67      C      0.013700000000     0.354640000000     0.223640000000     0.0363081  
C68      C      0.481400000000     0.354810000000     0.267850000000     0.0707449  
C69      C      0.476190000000     0.105130000000     0.226300000000     0.0296858  
C70      C      0.008170000000     0.104760000000     0.270520000000     0.0205668  
C71      C      0.474460000000     0.137340000000     0.227880000000     0.0331776  
C72      C      0.008450000000     0.137080000000     0.270800000000     0.0736667  
C73      C      0.493820000000     0.057420000000     0.747050000000     0.402185   
C74      C      0.997030000000     0.434620000000     0.745360000000     0.397642   
C75      C      0.434170000000     0.994880000000     0.746610000000     0.401989   
C76      C      0.056930000000     0.497450000000     0.745270000000     0.402576   
C77      C      0.992250000000     0.184640000000     0.747940000000     0.403984   
C78      C      0.996200000000     0.307290000000     0.744090000000     0.403652   
C79      C      0.995220000000     0.248410000000     0.806660000000     0.399489   
C80      C      0.993060000000     0.243460000000     0.683710000000     0.397983   
C81      C      0.306880000000     0.997180000000     0.745290000000     0.398507   
C82      C      0.184310000000     0.998420000000     0.744040000000     0.398422   
C83      C      0.245220000000     0.997510000000     0.683100000000     0.394333   
C84      C      0.246250000000     0.998780000000     0.805890000000     0.394665   
C85      C      0.245380000000     0.997070000000     0.555740000000     0.398446   
C86      C      0.248260000000     0.499800000000     0.933060000000     0.409213   
C87      C      0.244780000000     0.059120000000     0.496140000000     0.40351    
C88      C      0.248870000000     0.436280000000     0.993120000000     0.408044   
C89      C      0.993580000000     0.243180000000     0.556510000000     0.408479   
C90      C      0.496850000000     0.249560000000     0.933820000000     0.407914   
C91      C      0.057320000000     0.248080000000     0.496300000000     0.407721   
C92      C      0.434440000000     0.244680000000     0.993610000000     0.403192   
C93      C      0.243080000000     0.186180000000     0.497010000000     0.407728   
C94      C      0.248680000000     0.308980000000     0.492860000000     0.404079   
C95      C      0.184540000000     0.249780000000     0.496210000000     0.404058   
C96      C      0.307280000000     0.244430000000     0.493300000000     0.407487   
C97      C      0.386610000000     0.266390000000     0.508540000000     0.0299691  
C98      C      0.387280000000     0.221250000000     0.977830000000     0.0157395  
C99      C      0.354490000000     0.265410000000     0.509340000000     0.0330184  
C100     C      0.354880000000     0.221690000000     0.976380000000     0.0680574  
C101     C      0.136670000000     0.264990000000     0.518690000000     0.0301916  
C102     C      0.137450000000     0.233830000000     0.973900000000     0.0152904  
C103     C      0.104350000000     0.265890000000     0.517350000000     0.0326351  
C104     C      0.105260000000     0.232340000000     0.974070000000     0.0703286  
C105     C      0.235770000000     0.356760000000     0.469040000000     0.0299905  
C106     C      0.264440000000     0.356250000000     0.515470000000     0.0169684  
C107     C      0.234550000000     0.389020000000     0.470280000000     0.032704   
C108     C      0.265390000000     0.388570000000     0.515520000000     0.0696138  
C109     C      0.266950000000     0.107050000000     0.010860000000     0.0333293  
C110     C      0.219230000000     0.106120000000     0.984380000000     0.0174818  
C111     C      0.265370000000     0.139240000000     0.012560000000     0.0349099  
C112     C      0.218920000000     0.138470000000     0.983600000000     0.0704565  
C113     C      0.263790000000     0.977920000000     0.853540000000     0.0309084  
C114     C      0.231950000000     0.022250000000     0.853250000000     0.0241522  
C115     C      0.265680000000     0.979530000000     0.885730000000     0.0243285  
C116     C      0.231810000000     0.022560000000     0.885570000000     0.0696041  
C117     C      0.229210000000     0.975410000000     0.635360000000     0.0283559  
C118     C      0.260060000000     0.020420000000     0.635660000000     0.021857   
C119     C      0.228040000000     0.976480000000     0.603080000000     0.0315398  
C120     C      0.260810000000     0.020340000000     0.603360000000     0.0752256  
C121     C      0.019570000000     0.236350000000     0.854150000000     0.0342435  
C122     C      0.472460000000     0.263880000000     0.854130000000     0.0185167  
C123     C      0.019130000000     0.235720000000     0.886360000000     0.0371415  
C124     C      0.473380000000     0.265730000000     0.886490000000     0.0692922  
C125     C      0.514420000000     0.226360000000     0.636060000000     0.0293871  
C126     C      0.469450000000     0.257260000000     0.636260000000     0.0162023  
C127     C      0.513290000000     0.224950000000     0.603810000000     0.0327716  
C128     C      0.469630000000     0.257970000000     0.603940000000     0.0710479  
C129     C      0.105070000000     0.482470000000     0.766810000000     0.0297435  
C130     C      0.103910000000     0.013650000000     0.722060000000     0.0225595  
C131     C      0.137260000000     0.481730000000     0.765440000000     0.0324637  
C132     C      0.136250000000     0.014870000000     0.721870000000     0.0736771  
C133     C      0.386330000000     0.480020000000     0.724300000000     0.0295963  
C134     C      0.386900000000     0.010610000000     0.769480000000     0.0232273  
C135     C      0.354110000000     0.479740000000     0.724910000000     0.032227   
C136     C      0.354600000000     0.012350000000     0.768900000000     0.0734784  
C137     C      0.012690000000     0.386950000000     0.722800000000     0.0328434  
C138     C      0.482400000000     0.387100000000     0.768190000000     0.0166882  
C139     C      0.013700000000     0.354640000000     0.723640000000     0.0362854  
C140     C      0.481400000000     0.354810000000     0.767850000000     0.0707413  
C141     C      0.476190000000     0.105130000000     0.726300000000     0.0296715  
C142     C      0.008170000000     0.104760000000     0.770520000000     0.020536   
C143     C      0.474460000000     0.137340000000     0.727880000000     0.0330976  
C144     C      0.008450000000     0.137080000000     0.770800000000     0.0737048  
C145     C      0.493820000000     0.557420000000     0.247050000000     0.403302   
C146     C      0.997030000000     0.934620000000     0.245360000000     0.397107   
C147     C      0.434170000000     0.494880000000     0.246610000000     0.403197   
C148     C      0.056930000000     0.997450000000     0.245280000000     0.39257    
C149     C      0.992250000000     0.684640000000     0.247930000000     0.403969   
C150     C      0.996200000000     0.807290000000     0.244090000000     0.403656   
C151     C      0.995220000000     0.748410000000     0.306660000000     0.399482   
C152     C      0.993060000000     0.743460000000     0.183710000000     0.398033   
C153     C      0.306880000000     0.497180000000     0.245290000000     0.407609   
C154     C      0.184310000000     0.498420000000     0.244040000000     0.40756    
C155     C      0.245220000000     0.497510000000     0.183100000000     0.403408   
C156     C      0.246250000000     0.498780000000     0.305890000000     0.403578   
C157     C      0.245380000000     0.497070000000     0.055740000000     0.40841    
C158     C      0.248260000000     0.999800000000     0.433060000000     0.392623   
C159     C      0.244780000000     0.559120000000     0.996140000000     0.404476   
C160     C      0.248870000000     0.936270000000     0.493120000000     0.407746   
C161     C      0.993580000000     0.743180000000     0.056510000000     0.408088   
C162     C      0.496850000000     0.749560000000     0.433820000000     0.408076   
C163     C      0.057320000000     0.748090000000     0.996300000000     0.407292   
C164     C      0.434440000000     0.744680000000     0.493610000000     0.403657   
C165     C      0.243080000000     0.686180000000     0.997010000000     0.403836   
C166     C      0.248680000000     0.808980000000     0.992860000000     0.400086   
C167     C      0.184540000000     0.749780000000     0.996210000000     0.400167   
C168     C      0.307280000000     0.744430000000     0.993300000000     0.403525   
C169     C      0.386610000000     0.766390000000     0.008540000000     0.0326087  
C170     C      0.387280000000     0.721250000000     0.477830000000     0.0161085  
C171     C      0.354490000000     0.765410000000     0.009340000000     0.0353425  
C172     C      0.354880000000     0.721690000000     0.476370000000     0.0685751  
C173     C      0.136670000000     0.764990000000     0.018690000000     0.0324503  
C174     C      0.137450000000     0.733830000000     0.473900000000     0.0158074  
C175     C      0.104350000000     0.765880000000     0.017350000000     0.0353732  
C176     C      0.105260000000     0.732340000000     0.474070000000     0.0706039  
C177     C      0.235770000000     0.856760000000     0.969040000000     0.0293424  
C178     C      0.264440000000     0.856250000000     0.015480000000     0.0191722  
C179     C      0.234550000000     0.889020000000     0.970270000000     0.0320593  
C180     C      0.265390000000     0.888570000000     0.015520000000     0.0719807  
C181     C      0.266950000000     0.607050000000     0.510860000000     0.0303668  
C182     C      0.219230000000     0.606120000000     0.484380000000     0.017744   
C183     C      0.265370000000     0.639240000000     0.512560000000     0.0324078  
C184     C      0.218920000000     0.638470000000     0.483600000000     0.0708291  
C185     C      0.263790000000     0.477920000000     0.353540000000     0.0297303  
C186     C      0.231950000000     0.522260000000     0.353250000000     0.0164482  
C187     C      0.265680000000     0.479530000000     0.385730000000     0.0328467  
C188     C      0.231810000000     0.522560000000     0.385570000000     0.0710048  
C189     C      0.229210000000     0.475410000000     0.135360000000     0.0297887  
C190     C      0.260060000000     0.520420000000     0.135660000000     0.0163363  
C191     C      0.228040000000     0.476480000000     0.103080000000     0.0330955  
C192     C      0.260810000000     0.520340000000     0.103360000000     0.0707317  
C193     C      0.019570000000     0.736350000000     0.354150000000     0.0342091  
C194     C      0.472460000000     0.763880000000     0.354130000000     0.0184959  
C195     C      0.019130000000     0.735720000000     0.386360000000     0.037117   
C196     C      0.473380000000     0.765730000000     0.386490000000     0.0692452  
C197     C      0.514420000000     0.726360000000     0.136060000000     0.0294271  
C198     C      0.469450000000     0.757260000000     0.136260000000     0.016228   
C199     C      0.513290000000     0.724950000000     0.103800000000     0.0328445  
C200     C      0.469630000000     0.757960000000     0.103940000000     0.0710767  
C201     C      0.105070000000     0.982470000000     0.266810000000     0.028361   
C202     C      0.103910000000     0.513650000000     0.222050000000     0.016825   
C203     C      0.137260000000     0.981730000000     0.265440000000     0.0310338  
C204     C      0.136250000000     0.514870000000     0.221870000000     0.0693693  
C205     C      0.386330000000     0.980020000000     0.224300000000     0.0285815  
C206     C      0.386900000000     0.510610000000     0.269480000000     0.0166828  
C207     C      0.354110000000     0.979740000000     0.224910000000     0.030707   
C208     C      0.354600000000     0.512350000000     0.268890000000     0.0693856  
C209     C      0.012690000000     0.886950000000     0.222800000000     0.0327486  
C210     C      0.482400000000     0.887100000000     0.268190000000     0.0166039  
C211     C      0.013700000000     0.854640000000     0.223640000000     0.0362309  
C212     C      0.481400000000     0.854810000000     0.267850000000     0.0707107  
C213     C      0.476190000000     0.605130000000     0.226300000000     0.0294758  
C214     C      0.008170000000     0.604760000000     0.270520000000     0.0203552  
C215     C      0.474460000000     0.637340000000     0.227880000000     0.0329517  
C216     C      0.008450000000     0.637080000000     0.270800000000     0.0735333  
C217     C      0.493820000000     0.557420000000     0.747050000000     0.403308   
C218     C      0.997030000000     0.934620000000     0.745360000000     0.397102   
C219     C      0.434170000000     0.494880000000     0.746610000000     0.403205   
C220     C      0.056930000000     0.997450000000     0.745270000000     0.392559   
C221     C      0.992250000000     0.684640000000     0.747940000000     0.403943   
C222     C      0.996200000000     0.807290000000     0.744090000000     0.403646   
C223     C      0.995220000000     0.748410000000     0.806660000000     0.399477   
C224     C      0.993060000000     0.743460000000     0.683710000000     0.397995   
C225     C      0.306880000000     0.497180000000     0.745290000000     0.407642   
C226     C      0.184310000000     0.498420000000     0.744040000000     0.407559   
C227     C      0.245220000000     0.497510000000     0.683100000000     0.403387   
C228     C      0.246250000000     0.498780000000     0.805890000000     0.403576   
C229     C      0.245380000000     0.497070000000     0.555740000000     0.408874   
C230     C      0.248260000000     0.999800000000     0.933060000000     0.392474   
C231     C      0.244780000000     0.559120000000     0.496140000000     0.404924   
C232     C      0.248870000000     0.936270000000     0.993120000000     0.40723    
C233     C      0.993580000000     0.743180000000     0.556510000000     0.408502   
C234     C      0.496850000000     0.749560000000     0.933820000000     0.407944   
C235     C      0.057320000000     0.748090000000     0.496300000000     0.407739   
C236     C      0.434440000000     0.744680000000     0.993610000000     0.403216   
C237     C      0.243080000000     0.686180000000     0.497010000000     0.407721   
C238     C      0.248680000000     0.808980000000     0.492860000000     0.404062   
C239     C      0.184540000000     0.749780000000     0.496210000000     0.40405    
C240     C      0.307280000000     0.744430000000     0.493300000000     0.407494   
C241     C      0.386610000000     0.766390000000     0.508540000000     0.0299332  
C242     C      0.387280000000     0.721250000000     0.977830000000     0.015676   
C243     C      0.354490000000     0.765410000000     0.509340000000     0.032981   
C244     C      0.354880000000     0.721690000000     0.976380000000     0.0680512  
C245     C      0.136670000000     0.764990000000     0.518690000000     0.0301061  
C246     C      0.137450000000     0.733830000000     0.973900000000     0.0152627  
C247     C      0.104350000000     0.765880000000     0.517350000000     0.0326248  
C248     C      0.105260000000     0.732340000000     0.974070000000     0.0702924  
C249     C      0.235770000000     0.856760000000     0.469040000000     0.0299003  
C250     C      0.264440000000     0.856250000000     0.515470000000     0.0168749  
C251     C      0.234550000000     0.889020000000     0.470280000000     0.0325745  
C252     C      0.265390000000     0.888570000000     0.515520000000     0.0696349  
C253     C      0.266950000000     0.607050000000     0.010860000000     0.0331659  
C254     C      0.219230000000     0.606120000000     0.984380000000     0.0172913  
C255     C      0.265370000000     0.639240000000     0.012560000000     0.0347623  
C256     C      0.218920000000     0.638470000000     0.983600000000     0.0703403  
C257     C      0.263790000000     0.477920000000     0.853540000000     0.0297056  
C258     C      0.231950000000     0.522260000000     0.853250000000     0.0164333  
C259     C      0.265680000000     0.479530000000     0.885730000000     0.0328013  
C260     C      0.231810000000     0.522560000000     0.885570000000     0.0709745  
C261     C      0.229210000000     0.475410000000     0.635360000000     0.0296958  
C262     C      0.260060000000     0.520420000000     0.635660000000     0.0162325  
C263     C      0.228040000000     0.476480000000     0.603080000000     0.03299    
C264     C      0.260810000000     0.520340000000     0.603360000000     0.07072    
C265     C      0.019570000000     0.736350000000     0.854150000000     0.0341967  
C266     C      0.472460000000     0.763880000000     0.854130000000     0.0184582  
C267     C      0.019130000000     0.735720000000     0.886360000000     0.0370763  
C268     C      0.473380000000     0.765730000000     0.886490000000     0.0692745  
C269     C      0.514420000000     0.726360000000     0.636060000000     0.0293138  
C270     C      0.469450000000     0.757260000000     0.636260000000     0.0161262  
C271     C      0.513290000000     0.724950000000     0.603810000000     0.0326823  
C272     C      0.469630000000     0.757960000000     0.603940000000     0.0710381  
C273     C      0.105070000000     0.982470000000     0.766810000000     0.0283577  
C274     C      0.103910000000     0.513650000000     0.722060000000     0.0168584  
C275     C      0.137260000000     0.981730000000     0.765440000000     0.0310048  
C276     C      0.136250000000     0.514870000000     0.721870000000     0.0693427  
C277     C      0.386330000000     0.980020000000     0.724300000000     0.0285582  
C278     C      0.386900000000     0.510610000000     0.769480000000     0.0166919  
C279     C      0.354110000000     0.979740000000     0.724910000000     0.0306803  
C280     C      0.354600000000     0.512350000000     0.768900000000     0.0693288  
C281     C      0.012690000000     0.886950000000     0.722800000000     0.0327231  
C282     C      0.482400000000     0.887100000000     0.768190000000     0.0165841  
C283     C      0.013700000000     0.854640000000     0.723640000000     0.0362081  
C284     C      0.481400000000     0.854810000000     0.767850000000     0.070707   
C285     C      0.476190000000     0.605130000000     0.726300000000     0.0294612  
C286     C      0.008170000000     0.604760000000     0.770520000000     0.0203243  
C287     C      0.474460000000     0.637340000000     0.727880000000     0.0328712  
C288     C      0.008450000000     0.637080000000     0.770800000000     0.0735712  
C289     C      0.993820000000     0.057420000000     0.247050000000     0.401462   
C290     C      0.497030000000     0.434620000000     0.245360000000     0.403658   
C291     C      0.934170000000     0.994880000000     0.246610000000     0.401666   
C292     C      0.556930000000     0.497450000000     0.245280000000     0.403238   
C293     C      0.492250000000     0.184640000000     0.247930000000     0.409494   
C294     C      0.496200000000     0.307290000000     0.244090000000     0.409019   
C295     C      0.495220000000     0.248410000000     0.306660000000     0.404859   
C296     C      0.493060000000     0.243460000000     0.183710000000     0.403378   
C297     C      0.806880000000     0.997180000000     0.245290000000     0.398482   
C298     C      0.684310000000     0.998420000000     0.244040000000     0.398274   
C299     C      0.745220000000     0.997510000000     0.183100000000     0.394355   
C300     C      0.746250000000     0.998780000000     0.305890000000     0.394653   
C301     C      0.745380000000     0.997070000000     0.055740000000     0.398025   
C302     C      0.748260000000     0.499800000000     0.433060000000     0.409393   
C303     C      0.744780000000     0.059120000000     0.996140000000     0.403081   
C304     C      0.748870000000     0.436280000000     0.493120000000     0.408575   
C305     C      0.493580000000     0.243180000000     0.056510000000     0.408651   
C306     C      0.996850000000     0.249560000000     0.433820000000     0.407451   
C307     C      0.557310000000     0.248080000000     0.996300000000     0.407969   
C308     C      0.934440000000     0.244680000000     0.493610000000     0.403351   
C309     C      0.743080000000     0.186180000000     0.997010000000     0.403852   
C310     C      0.748680000000     0.308980000000     0.992860000000     0.400087   
C311     C      0.684530000000     0.249780000000     0.996210000000     0.400054   
C312     C      0.807280000000     0.244430000000     0.993300000000     0.403527   
C313     C      0.886610000000     0.266390000000     0.008540000000     0.0325932  
C314     C      0.887280000000     0.221250000000     0.477830000000     0.0161236  
C315     C      0.854490000000     0.265410000000     0.009340000000     0.0353602  
C316     C      0.854880000000     0.221690000000     0.476370000000     0.0685674  
C317     C      0.636670000000     0.264990000000     0.018690000000     0.0324064  
C318     C      0.637450000000     0.233830000000     0.473900000000     0.0157195  
C319     C      0.604350000000     0.265890000000     0.017350000000     0.0352059  
C320     C      0.605260000000     0.232340000000     0.474070000000     0.0705909  
C321     C      0.735770000000     0.356760000000     0.969040000000     0.029388   
C322     C      0.764440000000     0.356250000000     0.015480000000     0.0192345  
C323     C      0.734550000000     0.389020000000     0.970270000000     0.0321328  
C324     C      0.765390000000     0.388570000000     0.015520000000     0.0719382  
C325     C      0.766950000000     0.107050000000     0.510860000000     0.030526   
C326     C      0.719230000000     0.106120000000     0.484380000000     0.0179009  
C327     C      0.765370000000     0.139240000000     0.512560000000     0.0325449  
C328     C      0.718920000000     0.138470000000     0.483600000000     0.0709289  
C329     C      0.763790000000     0.977920000000     0.353540000000     0.0309048  
C330     C      0.731950000000     0.022250000000     0.353250000000     0.0241423  
C331     C      0.765680000000     0.979530000000     0.385730000000     0.0243246  
C332     C      0.731810000000     0.022560000000     0.385570000000     0.0695938  
C333     C      0.729210000000     0.975410000000     0.135360000000     0.0284143  
C334     C      0.760060000000     0.020420000000     0.135660000000     0.0219284  
C335     C      0.728040000000     0.976480000000     0.103080000000     0.0315972  
C336     C      0.760810000000     0.020340000000     0.103360000000     0.0752025  
C337     C      0.519570000000     0.236350000000     0.354150000000     0.0311712  
C338     C      0.972460000000     0.263880000000     0.354130000000     0.0177272  
C339     C      0.519130000000     0.235720000000     0.386360000000     0.0335105  
C340     C      0.973380000000     0.265730000000     0.386490000000     0.0688703  
C341     C      0.014410000000     0.226360000000     0.136060000000     0.0327396  
C342     C      0.969450000000     0.257260000000     0.136260000000     0.0154736  
C343     C      0.013290000000     0.224950000000     0.103800000000     0.0366126  
C344     C      0.969630000000     0.257970000000     0.103940000000     0.0706173  
C345     C      0.605070000000     0.482470000000     0.266810000000     0.0296005  
C346     C      0.603910000000     0.013650000000     0.222050000000     0.0223905  
C347     C      0.637260000000     0.481730000000     0.265440000000     0.0323522  
C348     C      0.636250000000     0.014870000000     0.221870000000     0.0736283  
C349     C      0.886330000000     0.480020000000     0.224300000000     0.0295575  
C350     C      0.886900000000     0.010610000000     0.269480000000     0.0231545  
C351     C      0.854110000000     0.479740000000     0.224910000000     0.0322149  
C352     C      0.854600000000     0.012350000000     0.268890000000     0.0735182  
C353     C      0.512690000000     0.386950000000     0.222800000000     0.0295933  
C354     C      0.982400000000     0.387100000000     0.268190000000     0.0158436  
C355     C      0.513700000000     0.354640000000     0.223640000000     0.0329679  
C356     C      0.981400000000     0.354810000000     0.267850000000     0.0701783  
C357     C      0.976190000000     0.105130000000     0.226300000000     0.0290769  
C358     C      0.508170000000     0.104760000000     0.270520000000     0.01668    
C359     C      0.974460000000     0.137340000000     0.227880000000     0.0322672  
C360     C      0.508450000000     0.137080000000     0.270800000000     0.0711437  
C361     C      0.993820000000     0.057420000000     0.747050000000     0.401466   
C362     C      0.497030000000     0.434620000000     0.745360000000     0.403664   
C363     C      0.934170000000     0.994880000000     0.746610000000     0.401672   
C364     C      0.556930000000     0.497450000000     0.745270000000     0.403247   
C365     C      0.492250000000     0.184640000000     0.747940000000     0.409476   
C366     C      0.496200000000     0.307290000000     0.744090000000     0.409016   
C367     C      0.495220000000     0.248410000000     0.806660000000     0.404859   
C368     C      0.493060000000     0.243460000000     0.683710000000     0.40335    
C369     C      0.806880000000     0.997180000000     0.745290000000     0.398506   
C370     C      0.684310000000     0.998420000000     0.744040000000     0.398265   
C371     C      0.745220000000     0.997510000000     0.683100000000     0.394321   
C372     C      0.746250000000     0.998780000000     0.805890000000     0.394648   
C373     C      0.745380000000     0.997070000000     0.555740000000     0.398451   
C374     C      0.748260000000     0.499800000000     0.933060000000     0.409226   
C375     C      0.744780000000     0.059120000000     0.496140000000     0.403525   
C376     C      0.748870000000     0.436280000000     0.993120000000     0.408056   
C377     C      0.493580000000     0.243180000000     0.556510000000     0.409066   
C378     C      0.996850000000     0.249560000000     0.933820000000     0.40732    
C379     C      0.557310000000     0.248080000000     0.496300000000     0.408417   
C380     C      0.934440000000     0.244680000000     0.993610000000     0.402911   
C381     C      0.743080000000     0.186180000000     0.497010000000     0.407735   
C382     C      0.748680000000     0.308980000000     0.492860000000     0.404065   
C383     C      0.684530000000     0.249780000000     0.496210000000     0.403938   
C384     C      0.807280000000     0.244430000000     0.493300000000     0.407494   
C385     C      0.886610000000     0.266390000000     0.508540000000     0.0299231  
C386     C      0.887280000000     0.221250000000     0.977830000000     0.0156915  
C387     C      0.854490000000     0.265410000000     0.509340000000     0.0330014  
C388     C      0.854880000000     0.221690000000     0.976380000000     0.0680441  
C389     C      0.636670000000     0.264990000000     0.518690000000     0.0300603  
C390     C      0.637450000000     0.233830000000     0.973900000000     0.0151737  
C391     C      0.604350000000     0.265890000000     0.517350000000     0.032452   
C392     C      0.605260000000     0.232340000000     0.974070000000     0.0702791  
C393     C      0.735770000000     0.356760000000     0.469040000000     0.0299467  
C394     C      0.764440000000     0.356250000000     0.515470000000     0.0169364  
C395     C      0.734550000000     0.389020000000     0.470280000000     0.0326488  
C396     C      0.765390000000     0.388570000000     0.515520000000     0.0695894  
C397     C      0.766950000000     0.107050000000     0.010860000000     0.033317   
C398     C      0.719230000000     0.106120000000     0.984380000000     0.0174482  
C399     C      0.765370000000     0.139240000000     0.012560000000     0.0348962  
C400     C      0.718920000000     0.138470000000     0.983600000000     0.0704404  
C401     C      0.763790000000     0.977920000000     0.853540000000     0.0308788  
C402     C      0.731950000000     0.022250000000     0.853250000000     0.0241269  
C403     C      0.765680000000     0.979530000000     0.885730000000     0.024285   
C404     C      0.731810000000     0.022560000000     0.885570000000     0.0695643  
C405     C      0.729210000000     0.975410000000     0.635360000000     0.0283183  
C406     C      0.760060000000     0.020420000000     0.635660000000     0.0218363  
C407     C      0.728040000000     0.976480000000     0.603080000000     0.0314878  
C408     C      0.760810000000     0.020340000000     0.603360000000     0.0752048  
C409     C      0.519570000000     0.236350000000     0.854150000000     0.0311561  
C410     C      0.972460000000     0.263880000000     0.854130000000     0.0176895  
C411     C      0.519130000000     0.235720000000     0.886360000000     0.0334702  
C412     C      0.973380000000     0.265730000000     0.886490000000     0.0688996  
C413     C      0.014410000000     0.226360000000     0.636060000000     0.0326347  
C414     C      0.969450000000     0.257260000000     0.636260000000     0.0153702  
C415     C      0.013290000000     0.224950000000     0.603810000000     0.0364633  
C416     C      0.969630000000     0.257970000000     0.603940000000     0.0705779  
C417     C      0.605070000000     0.482470000000     0.766810000000     0.0295982  
C418     C      0.603910000000     0.013650000000     0.722060000000     0.0224322  
C419     C      0.637260000000     0.481730000000     0.765440000000     0.0323239  
C420     C      0.636250000000     0.014870000000     0.721870000000     0.0736051  
C421     C      0.886330000000     0.480020000000     0.724300000000     0.0295348  
C422     C      0.886900000000     0.010610000000     0.769480000000     0.0231715  
C423     C      0.854110000000     0.479740000000     0.724910000000     0.0321899  
C424     C      0.854600000000     0.012350000000     0.768900000000     0.0734632  
C425     C      0.512690000000     0.386950000000     0.722800000000     0.0295626  
C426     C      0.982400000000     0.387100000000     0.768190000000     0.0158229  
C427     C      0.513700000000     0.354640000000     0.723640000000     0.0329396  
C428     C      0.981400000000     0.354810000000     0.767850000000     0.0701741  
C429     C      0.976190000000     0.105130000000     0.726300000000     0.0290619  
C430     C      0.508170000000     0.104760000000     0.770520000000     0.0166436  
C431     C      0.974460000000     0.137340000000     0.727880000000     0.0321859  
C432     C      0.508450000000     0.137080000000     0.770800000000     0.0711766  
C433     C      0.993820000000     0.557420000000     0.247050000000     0.40258    
C434     C      0.497030000000     0.934620000000     0.245360000000     0.403113   
C435     C      0.934170000000     0.494880000000     0.246610000000     0.402878   
C436     C      0.556930000000     0.997450000000     0.245280000000     0.393204   
C437     C      0.492250000000     0.684640000000     0.247930000000     0.409464   
C438     C      0.496200000000     0.807290000000     0.244090000000     0.409016   
C439     C      0.495220000000     0.748410000000     0.306660000000     0.404854   
C440     C      0.493060000000     0.743460000000     0.183710000000     0.403397   
C441     C      0.806880000000     0.497180000000     0.245290000000     0.407611   
C442     C      0.684310000000     0.498420000000     0.244040000000     0.407414   
C443     C      0.745220000000     0.497510000000     0.183100000000     0.403403   
C444     C      0.746250000000     0.498780000000     0.305890000000     0.403568   
C445     C      0.745380000000     0.497070000000     0.055740000000     0.408422   
C446     C      0.748260000000     0.999800000000     0.433060000000     0.392619   
C447     C      0.744780000000     0.559120000000     0.996140000000     0.404493   
C448     C      0.748870000000     0.936270000000     0.493120000000     0.407757   
C449     C      0.493580000000     0.743180000000     0.056510000000     0.408673   
C450     C      0.996850000000     0.749560000000     0.433820000000     0.407481   
C451     C      0.557310000000     0.748090000000     0.996300000000     0.407988   
C452     C      0.934440000000     0.744680000000     0.493610000000     0.403376   
C453     C      0.743080000000     0.686180000000     0.997010000000     0.403837   
C454     C      0.748680000000     0.808980000000     0.992860000000     0.400066   
C455     C      0.684530000000     0.749780000000     0.996210000000     0.40004    
C456     C      0.807280000000     0.744430000000     0.993300000000     0.403527   
C457     C      0.886610000000     0.766390000000     0.008540000000     0.0325643  
C458     C      0.887280000000     0.721250000000     0.477830000000     0.0160604  
C459     C      0.854490000000     0.765410000000     0.009340000000     0.0353291  
C460     C      0.854880000000     0.721690000000     0.476370000000     0.0685621  
C461     C      0.636670000000     0.764990000000     0.018690000000     0.0323261  
C462     C      0.637450000000     0.733830000000     0.473900000000     0.015692   
C463     C      0.604350000000     0.765880000000     0.017350000000     0.0352028  
C464     C      0.605260000000     0.732340000000     0.474070000000     0.0705548  
C465     C      0.735770000000     0.856760000000     0.969040000000     0.0292976  
C466     C      0.764440000000     0.856250000000     0.015480000000     0.0191455  
C467     C      0.734550000000     0.889020000000     0.970270000000     0.0320035  
C468     C      0.765390000000     0.888570000000     0.015520000000     0.0719614  
C469     C      0.766950000000     0.607050000000     0.510860000000     0.0303483  
C470     C      0.719230000000     0.606120000000     0.484380000000     0.0177106  
C471     C      0.765370000000     0.639240000000     0.512560000000     0.0323886  
C472     C      0.718920000000     0.638470000000     0.483600000000     0.0708135  
C473     C      0.763790000000     0.477920000000     0.353540000000     0.029699   
C474     C      0.731950000000     0.522260000000     0.353250000000     0.0164148  
C475     C      0.765680000000     0.479530000000     0.385730000000     0.0328105  
C476     C      0.731810000000     0.522560000000     0.385570000000     0.0709657  
C477     C      0.729210000000     0.475410000000     0.135360000000     0.0297528  
C478     C      0.760060000000     0.520420000000     0.135660000000     0.0163102  
C479     C      0.728040000000     0.476480000000     0.103080000000     0.0330452  
C480     C      0.760810000000     0.520340000000     0.103360000000     0.0707063  
C481     C      0.519570000000     0.736350000000     0.354150000000     0.0311187  
C482     C      0.972460000000     0.763880000000     0.354130000000     0.017668   
C483     C      0.519130000000     0.735720000000     0.386360000000     0.0334387  
C484     C      0.973380000000     0.765730000000     0.386490000000     0.0688524  
C485     C      0.014410000000     0.726360000000     0.136060000000     0.0326732  
C486     C      0.969450000000     0.757260000000     0.136260000000     0.015397   
C487     C      0.013290000000     0.724950000000     0.103800000000     0.0365316  
C488     C      0.969630000000     0.757960000000     0.103940000000     0.0706079  
C489     C      0.605070000000     0.982470000000     0.266810000000     0.0282122  
C490     C      0.603910000000     0.513650000000     0.222050000000     0.0166811  
C491     C      0.637260000000     0.981730000000     0.265440000000     0.0308939  
C492     C      0.636250000000     0.514870000000     0.221870000000     0.0692868  
C493     C      0.886330000000     0.980020000000     0.224300000000     0.0285209  
C494     C      0.886900000000     0.510610000000     0.269480000000     0.0166308  
C495     C      0.854110000000     0.979740000000     0.224910000000     0.0306705  
C496     C      0.854600000000     0.512350000000     0.268890000000     0.0693693  
C497     C      0.512690000000     0.886950000000     0.222800000000     0.0294726  
C498     C      0.982400000000     0.887100000000     0.268190000000     0.0157403  
C499     C      0.513700000000     0.854640000000     0.223640000000     0.0328874  
C500     C      0.981400000000     0.854810000000     0.267850000000     0.0701443  
C501     C      0.976190000000     0.605130000000     0.226300000000     0.028866   
C502     C      0.508170000000     0.604760000000     0.270520000000     0.0164516  
C503     C      0.974460000000     0.637340000000     0.227880000000     0.0320394  
C504     C      0.508450000000     0.637080000000     0.270800000000     0.0710028  
C505     C      0.993820000000     0.557420000000     0.747050000000     0.402585   
C506     C      0.497030000000     0.934620000000     0.745360000000     0.403119   
C507     C      0.934170000000     0.494880000000     0.746610000000     0.402885   
C508     C      0.556930000000     0.997450000000     0.745270000000     0.393195   
C509     C      0.492250000000     0.684640000000     0.747940000000     0.409445   
C510     C      0.496200000000     0.807290000000     0.744090000000     0.409013   
C511     C      0.495220000000     0.748410000000     0.806660000000     0.404854   
C512     C      0.493060000000     0.743460000000     0.683710000000     0.403369   
C513     C      0.806880000000     0.497180000000     0.745290000000     0.407644   
C514     C      0.684310000000     0.498420000000     0.744040000000     0.407414   
C515     C      0.745220000000     0.497510000000     0.683100000000     0.403383   
C516     C      0.746250000000     0.498780000000     0.805890000000     0.403566   
C517     C      0.745380000000     0.497070000000     0.555740000000     0.408887   
C518     C      0.748260000000     0.999800000000     0.933060000000     0.392469   
C519     C      0.744780000000     0.559120000000     0.496140000000     0.404941   
C520     C      0.748870000000     0.936270000000     0.993120000000     0.407241   
C521     C      0.493580000000     0.743180000000     0.556510000000     0.409089   
C522     C      0.996850000000     0.749560000000     0.933820000000     0.40735    
C523     C      0.557310000000     0.748090000000     0.496300000000     0.408437   
C524     C      0.934440000000     0.744680000000     0.993610000000     0.402936   
C525     C      0.743080000000     0.686180000000     0.497010000000     0.407728   
C526     C      0.748680000000     0.808980000000     0.492860000000     0.404049   
C527     C      0.684530000000     0.749780000000     0.496210000000     0.40393    
C528     C      0.807280000000     0.744430000000     0.493300000000     0.407501   
C529     C      0.886610000000     0.766390000000     0.508540000000     0.0298871  
C530     C      0.887280000000     0.721250000000     0.977830000000     0.015628   
C531     C      0.854490000000     0.765410000000     0.509340000000     0.0329641  
C532     C      0.854880000000     0.721690000000     0.976380000000     0.068038   
C533     C      0.636670000000     0.764990000000     0.518690000000     0.0299745  
C534     C      0.637450000000     0.733830000000     0.973900000000     0.0151457  
C535     C      0.604350000000     0.765880000000     0.517350000000     0.0324413  
C536     C      0.605260000000     0.732340000000     0.974070000000     0.0702428  
C537     C      0.735770000000     0.856760000000     0.469040000000     0.0298564  
C538     C      0.764440000000     0.856250000000     0.515470000000     0.0168429  
C539     C      0.734550000000     0.889020000000     0.470280000000     0.0325191  
C540     C      0.765390000000     0.888570000000     0.515520000000     0.0696106  
C541     C      0.766950000000     0.607050000000     0.010860000000     0.0331534  
C542     C      0.719230000000     0.606120000000     0.984380000000     0.0172574  
C543     C      0.765370000000     0.639240000000     0.012560000000     0.0347483  
C544     C      0.718920000000     0.638470000000     0.983600000000     0.0703239  
C545     C      0.763790000000     0.477920000000     0.853540000000     0.0296743  
C546     C      0.731950000000     0.522260000000     0.853250000000     0.0164     
C547     C      0.765680000000     0.479530000000     0.885730000000     0.0327651  
C548     C      0.731810000000     0.522560000000     0.885570000000     0.0709354  
C549     C      0.729210000000     0.475410000000     0.635360000000     0.0296596  
C550     C      0.760060000000     0.520420000000     0.635660000000     0.0162061  
C551     C      0.728040000000     0.476480000000     0.603080000000     0.0329393  
C552     C      0.760810000000     0.520340000000     0.603360000000     0.0706945  
C553     C      0.519570000000     0.736350000000     0.854150000000     0.0311037  
C554     C      0.972460000000     0.763880000000     0.854130000000     0.0176304  
C555     C      0.519130000000     0.735720000000     0.886360000000     0.0333983  
C556     C      0.973380000000     0.765730000000     0.886490000000     0.0688817  
C557     C      0.014410000000     0.726360000000     0.636060000000     0.0325679  
C558     C      0.969450000000     0.757260000000     0.636260000000     0.0152932  
C559     C      0.013290000000     0.724950000000     0.603810000000     0.0363817  
C560     C      0.969630000000     0.757960000000     0.603940000000     0.0705682  
C561     C      0.605070000000     0.982470000000     0.766810000000     0.0282087  
C562     C      0.603910000000     0.513650000000     0.722060000000     0.016714   
C563     C      0.637260000000     0.981730000000     0.765440000000     0.0308647  
C564     C      0.636250000000     0.514870000000     0.721870000000     0.0692601  
C565     C      0.886330000000     0.980020000000     0.724300000000     0.0284975  
C566     C      0.886900000000     0.510610000000     0.769480000000     0.0166399  
C567     C      0.854110000000     0.979740000000     0.724910000000     0.0306438  
C568     C      0.854600000000     0.512350000000     0.768900000000     0.0693125  
C569     C      0.512690000000     0.886950000000     0.722800000000     0.0294417  
C570     C      0.982400000000     0.887100000000     0.768190000000     0.0157196  
C571     C      0.513700000000     0.854640000000     0.723640000000     0.032859   
C572     C      0.981400000000     0.854810000000     0.767850000000     0.07014    
C573     C      0.976190000000     0.605130000000     0.726300000000     0.0288507  
C574     C      0.508170000000     0.604760000000     0.770520000000     0.016415   
C575     C      0.974460000000     0.637340000000     0.727880000000     0.0319576  
C576     C      0.508450000000     0.637080000000     0.770800000000     0.0710356  
Cu1      Cu     0.495190000000     0.496360000000     0.217640000000     0.840681   
Cu2      Cu     0.995910000000     0.995700000000     0.274370000000     0.840106   
Cu3      Cu     0.022690000000     0.244690000000     0.244700000000     0.850498   
Cu4      Cu     0.465700000000     0.247180000000     0.245660000000     0.851036   
Cu5      Cu     0.245370000000     0.469560000000     0.244770000000     0.841993   
Cu6      Cu     0.245860000000     0.026300000000     0.244280000000     0.854273   
Cu7      Cu     0.275340000000     0.998600000000     0.495400000000     0.83669    
Cu8      Cu     0.218350000000     0.496700000000     0.993320000000     0.846779   
Cu9      Cu     0.997110000000     0.217840000000     0.493350000000     0.844797   
Cu10     Cu     0.494690000000     0.274900000000     0.997040000000     0.848665   
Cu11     Cu     0.247050000000     0.248830000000     0.023400000000     0.851187   
Cu12     Cu     0.244890000000     0.246170000000     0.466300000000     0.853197   
Cu13     Cu     0.495190000000     0.496360000000     0.717640000000     0.840482   
Cu14     Cu     0.995910000000     0.995700000000     0.774370000000     0.840029   
Cu15     Cu     0.022690000000     0.244690000000     0.744700000000     0.850483   
Cu16     Cu     0.465700000000     0.247180000000     0.745660000000     0.851029   
Cu17     Cu     0.245370000000     0.469560000000     0.744770000000     0.841981   
Cu18     Cu     0.245860000000     0.026300000000     0.744280000000     0.854294   
Cu19     Cu     0.275340000000     0.998600000000     0.995400000000     0.833786   
Cu20     Cu     0.218350000000     0.496700000000     0.493320000000     0.849521   
Cu21     Cu     0.997110000000     0.217840000000     0.993350000000     0.842119   
Cu22     Cu     0.494690000000     0.274900000000     0.497050000000     0.851727   
Cu23     Cu     0.247050000000     0.248830000000     0.523400000000     0.849129   
Cu24     Cu     0.244890000000     0.246170000000     0.966300000000     0.849708   
Cu25     Cu     0.495190000000     0.996360000000     0.217640000000     0.828222   
Cu26     Cu     0.995910000000     0.495700000000     0.274370000000     0.846689   
Cu27     Cu     0.022690000000     0.744690000000     0.244700000000     0.850486   
Cu28     Cu     0.465700000000     0.747180000000     0.245660000000     0.851026   
Cu29     Cu     0.245370000000     0.969560000000     0.244770000000     0.833882   
Cu30     Cu     0.245860000000     0.526300000000     0.244280000000     0.849766   
Cu31     Cu     0.275340000000     0.498600000000     0.495400000000     0.849672   
Cu32     Cu     0.218350000000     0.996700000000     0.993320000000     0.833926   
Cu33     Cu     0.997110000000     0.717840000000     0.493350000000     0.844357   
Cu34     Cu     0.494690000000     0.774900000000     0.997040000000     0.848512   
Cu35     Cu     0.247050000000     0.748830000000     0.023400000000     0.85118    
Cu36     Cu     0.244890000000     0.746170000000     0.466300000000     0.853196   
Cu37     Cu     0.495190000000     0.996360000000     0.717640000000     0.828005   
Cu38     Cu     0.995910000000     0.495700000000     0.774370000000     0.846611   
Cu39     Cu     0.022690000000     0.744690000000     0.744700000000     0.850471   
Cu40     Cu     0.465700000000     0.747180000000     0.745660000000     0.851019   
Cu41     Cu     0.245370000000     0.969560000000     0.744770000000     0.833862   
Cu42     Cu     0.245860000000     0.526300000000     0.744280000000     0.849782   
Cu43     Cu     0.275340000000     0.498600000000     0.995400000000     0.846731   
Cu44     Cu     0.218350000000     0.996700000000     0.493320000000     0.836642   
Cu45     Cu     0.997110000000     0.717840000000     0.993350000000     0.841675   
Cu46     Cu     0.494690000000     0.774900000000     0.497050000000     0.851575   
Cu47     Cu     0.247050000000     0.748830000000     0.523400000000     0.849115   
Cu48     Cu     0.244890000000     0.746170000000     0.966300000000     0.849701   
Cu49     Cu     0.995190000000     0.496360000000     0.217640000000     0.833277   
Cu50     Cu     0.495910000000     0.995700000000     0.274370000000     0.843989   
Cu51     Cu     0.522690000000     0.244690000000     0.244700000000     0.847707   
Cu52     Cu     0.965700000000     0.247180000000     0.245660000000     0.846222   
Cu53     Cu     0.745370000000     0.469560000000     0.244770000000     0.841951   
Cu54     Cu     0.745860000000     0.026300000000     0.244280000000     0.854275   
Cu55     Cu     0.775340000000     0.998600000000     0.495400000000     0.836615   
Cu56     Cu     0.718350000000     0.496700000000     0.993320000000     0.846487   
Cu57     Cu     0.497110000000     0.217840000000     0.493350000000     0.848975   
Cu58     Cu     0.994690000000     0.274900000000     0.997040000000     0.845181   
Cu59     Cu     0.747050000000     0.248830000000     0.023400000000     0.851166   
Cu60     Cu     0.744890000000     0.246170000000     0.466300000000     0.853189   
Cu61     Cu     0.995190000000     0.496360000000     0.717640000000     0.833065   
Cu62     Cu     0.495910000000     0.995700000000     0.774370000000     0.843913   
Cu63     Cu     0.522690000000     0.244690000000     0.744700000000     0.847687   
Cu64     Cu     0.965700000000     0.247180000000     0.745660000000     0.846208   
Cu65     Cu     0.745370000000     0.469560000000     0.744770000000     0.841939   
Cu66     Cu     0.745860000000     0.026300000000     0.744280000000     0.854295   
Cu67     Cu     0.775340000000     0.998600000000     0.995400000000     0.833709   
Cu68     Cu     0.718350000000     0.496700000000     0.493320000000     0.849233   
Cu69     Cu     0.497110000000     0.217840000000     0.993350000000     0.846287   
Cu70     Cu     0.994690000000     0.274900000000     0.497050000000     0.848234   
Cu71     Cu     0.747050000000     0.248830000000     0.523400000000     0.849103   
Cu72     Cu     0.744890000000     0.246170000000     0.966300000000     0.849694   
Cu73     Cu     0.995190000000     0.996360000000     0.217640000000     0.820861   
Cu74     Cu     0.495910000000     0.495700000000     0.274370000000     0.850593   
Cu75     Cu     0.522690000000     0.744690000000     0.244700000000     0.847689   
Cu76     Cu     0.965700000000     0.747180000000     0.245660000000     0.846204   
Cu77     Cu     0.745370000000     0.969560000000     0.244770000000     0.833832   
Cu78     Cu     0.745860000000     0.526300000000     0.244280000000     0.849762   
Cu79     Cu     0.775340000000     0.498600000000     0.495400000000     0.849602   
Cu80     Cu     0.718350000000     0.996700000000     0.993320000000     0.833618   
Cu81     Cu     0.497110000000     0.717840000000     0.493350000000     0.84854    
Cu82     Cu     0.994690000000     0.774900000000     0.997040000000     0.845029   
Cu83     Cu     0.747050000000     0.748830000000     0.023400000000     0.851159   
Cu84     Cu     0.744890000000     0.746170000000     0.466300000000     0.853188   
Cu85     Cu     0.995190000000     0.996360000000     0.717640000000     0.820631   
Cu86     Cu     0.495910000000     0.495700000000     0.774370000000     0.850517   
Cu87     Cu     0.522690000000     0.744690000000     0.744700000000     0.847669   
Cu88     Cu     0.965700000000     0.747180000000     0.745660000000     0.846191   
Cu89     Cu     0.745370000000     0.969560000000     0.744770000000     0.833813   
Cu90     Cu     0.745860000000     0.526300000000     0.744280000000     0.849778   
Cu91     Cu     0.775340000000     0.498600000000     0.995400000000     0.846658   
Cu92     Cu     0.718350000000     0.996700000000     0.493320000000     0.836339   
Cu93     Cu     0.497110000000     0.717840000000     0.993350000000     0.845848   
Cu94     Cu     0.994690000000     0.774900000000     0.497050000000     0.848082   
Cu95     Cu     0.747050000000     0.748830000000     0.523400000000     0.849089   
Cu96     Cu     0.744890000000     0.746170000000     0.966300000000     0.849687   
H1       H      0.342360000000     0.283110000000     0.022370000000     0.0338009  
H2       H      0.398210000000     0.284550000000     0.021360000000     0.0375486  
H3       H      0.399760000000     0.203290000000     0.465540000000     0.041905   
H4       H      0.330670000000     0.167450000000     0.475740000000     0.0386613  
H5       H      0.091960000000     0.279000000000     0.034770000000     0.034943   
H6       H      0.148360000000     0.277920000000     0.036710000000     0.0372078  
H7       H      0.149920000000     0.221290000000     0.456090000000     0.0428363  
H8       H      0.082930000000     0.181260000000     0.453500000000     0.0426819  
H9       H      0.222220000000     0.401250000000     0.952170000000     0.0344648  
H10      H      0.223830000000     0.345020000000     0.950380000000     0.0378514  
H11      H      0.275990000000     0.343860000000     0.034000000000     0.041966   
H12      H      0.314160000000     0.412370000000     0.039710000000     0.0432836  
H13      H      0.283970000000     0.151610000000     0.523970000000     0.0319519  
H14      H      0.286420000000     0.095460000000     0.521590000000     0.036708   
H15      H      0.200480000000     0.093580000000     0.473390000000     0.0424507  
H16      H      0.164420000000     0.161850000000     0.487480000000     0.0389346  
H17      H      0.279290000000     0.962270000000     0.397820000000     0.0356983  
H18      H      0.276620000000     0.959920000000     0.341710000000     0.0373664  
H19      H      0.218830000000     0.039790000000     0.341000000000     0.042729   
H20      H      0.182130000000     0.043900000000     0.410270000000     0.0438222  
H21      H      0.215070000000     0.958760000000     0.090950000000     0.0356383  
H22      H      0.216540000000     0.957300000000     0.147170000000     0.0385826  
H23      H      0.272530000000     0.038440000000     0.147880000000     0.0435259  
H24      H      0.310280000000     0.043080000000     0.079490000000     0.0437605  
H25      H      0.037560000000     0.223700000000     0.398300000000     0.0342499  
H26      H      0.038220000000     0.224560000000     0.342240000000     0.0367372  
H27      H      0.453410000000     0.274690000000     0.341910000000     0.0417538  
H28      H      0.419670000000     0.263160000000     0.411710000000     0.0406142  
H29      H      0.530990000000     0.211920000000     0.091720000000     0.0343162  
H30      H      0.532560000000     0.213780000000     0.147930000000     0.0379643  
H31      H      0.451530000000     0.269890000000     0.148460000000     0.0433869  
H32      H      0.447840000000     0.307770000000     0.079850000000     0.0429012  
H33      H      0.149600000000     0.468650000000     0.282940000000     0.0360712  
H34      H      0.093660000000     0.469460000000     0.284950000000     0.039162   
H35      H      0.091300000000     0.026080000000     0.204280000000     0.0441017  
H36      H      0.159280000000     0.064970000000     0.199670000000     0.0432648  
H37      H      0.341970000000     0.467060000000     0.206990000000     0.0352709  
H38      H      0.398000000000     0.467120000000     0.206230000000     0.038003   
H39      H      0.399260000000     0.022680000000     0.287680000000     0.0443003  
H40      H      0.331800000000     0.062520000000     0.291180000000     0.0437375  
H41      H      0.026410000000     0.342550000000     0.205710000000     0.0347078  
H42      H      0.025200000000     0.398830000000     0.204610000000     0.0384442  
H43      H      0.470190000000     0.399260000000     0.286430000000     0.0442071  
H44      H      0.431960000000     0.331090000000     0.290830000000     0.0427707  
H45      H      0.460870000000     0.149460000000     0.210620000000     0.0350477  
H46      H      0.463290000000     0.093340000000     0.208330000000     0.0389919  
H47      H      0.021330000000     0.092500000000     0.288020000000     0.0446652  
H48      H      0.058300000000     0.161540000000     0.292020000000     0.0429085  
H49      H      0.342360000000     0.283110000000     0.522370000000     0.0336983  
H50      H      0.398210000000     0.284550000000     0.521370000000     0.0372823  
H51      H      0.399760000000     0.203290000000     0.965540000000     0.0417627  
H52      H      0.330670000000     0.167450000000     0.975740000000     0.0379538  
H53      H      0.091960000000     0.279000000000     0.534770000000     0.0347222  
H54      H      0.148360000000     0.277920000000     0.536710000000     0.037134   
H55      H      0.149920000000     0.221290000000     0.956090000000     0.0429096  
H56      H      0.082930000000     0.181260000000     0.953500000000     0.0424225  
H57      H      0.222220000000     0.401250000000     0.452170000000     0.0345268  
H58      H      0.223830000000     0.345020000000     0.450380000000     0.0379005  
H59      H      0.275990000000     0.343860000000     0.534000000000     0.0420717  
H60      H      0.314160000000     0.412370000000     0.539710000000     0.0426476  
H61      H      0.283970000000     0.151610000000     0.023970000000     0.0322849  
H62      H      0.286420000000     0.095460000000     0.021590000000     0.0370261  
H63      H      0.200480000000     0.093580000000     0.973390000000     0.0423213  
H64      H      0.164420000000     0.161850000000     0.987480000000     0.0384061  
H65      H      0.279290000000     0.962270000000     0.897820000000     0.0355859  
H66      H      0.276620000000     0.959920000000     0.841710000000     0.037326   
H67      H      0.218830000000     0.039790000000     0.841000000000     0.0427189  
H68      H      0.182130000000     0.043900000000     0.910270000000     0.0437113  
H69      H      0.215070000000     0.958760000000     0.590950000000     0.0352945  
H70      H      0.216540000000     0.957300000000     0.647170000000     0.0384904  
H71      H      0.272530000000     0.038440000000     0.647880000000     0.0434839  
H72      H      0.310280000000     0.043080000000     0.579490000000     0.0434447  
H73      H      0.037560000000     0.223700000000     0.898300000000     0.0342244  
H74      H      0.038220000000     0.224560000000     0.842240000000     0.0367235  
H75      H      0.453410000000     0.274690000000     0.841910000000     0.0417431  
H76      H      0.419670000000     0.263160000000     0.911710000000     0.0405573  
H77      H      0.530990000000     0.211920000000     0.591720000000     0.0339191  
H78      H      0.532560000000     0.213780000000     0.647930000000     0.0378451  
H79      H      0.451530000000     0.269890000000     0.648460000000     0.0433513  
H80      H      0.447840000000     0.307770000000     0.579850000000     0.0425798  
H81      H      0.149600000000     0.468650000000     0.782940000000     0.0360484  
H82      H      0.093660000000     0.469460000000     0.784950000000     0.0391147  
H83      H      0.091300000000     0.026080000000     0.704280000000     0.0439742  
H84      H      0.159280000000     0.064970000000     0.699680000000     0.0432157  
H85      H      0.341970000000     0.467060000000     0.706990000000     0.0352188  
H86      H      0.398000000000     0.467120000000     0.706230000000     0.0379159  
H87      H      0.399260000000     0.022680000000     0.787680000000     0.0442485  
H88      H      0.331800000000     0.062520000000     0.791180000000     0.0437228  
H89      H      0.026410000000     0.342550000000     0.705710000000     0.0346319  
H90      H      0.025200000000     0.398830000000     0.704610000000     0.0383394  
H91      H      0.470190000000     0.399260000000     0.786430000000     0.0441603  
H92      H      0.431960000000     0.331090000000     0.790830000000     0.0427529  
H93      H      0.460870000000     0.149460000000     0.710620000000     0.0349924  
H94      H      0.463290000000     0.093340000000     0.708330000000     0.0388873  
H95      H      0.021330000000     0.092500000000     0.788020000000     0.0446344  
H96      H      0.058300000000     0.161540000000     0.792020000000     0.0428977  
H97      H      0.342360000000     0.783110000000     0.022370000000     0.0337431  
H98      H      0.398210000000     0.784550000000     0.021360000000     0.0374529  
H99      H      0.399760000000     0.703290000000     0.465540000000     0.0417112  
H100     H      0.330670000000     0.667450000000     0.475740000000     0.0384235  
H101     H      0.091960000000     0.779000000000     0.034770000000     0.0348138  
H102     H      0.148360000000     0.777920000000     0.036710000000     0.0371345  
H103     H      0.149920000000     0.721280000000     0.456090000000     0.0427889  
H104     H      0.082930000000     0.681260000000     0.453500000000     0.0423754  
H105     H      0.222220000000     0.901250000000     0.952170000000     0.0340867  
H106     H      0.223830000000     0.845020000000     0.950380000000     0.0377389  
H107     H      0.275990000000     0.843860000000     0.034000000000     0.0419304  
H108     H      0.314160000000     0.912370000000     0.039710000000     0.0427549  
H109     H      0.283970000000     0.651610000000     0.523970000000     0.031818   
H110     H      0.286420000000     0.595460000000     0.521590000000     0.0362389  
H111     H      0.200480000000     0.593590000000     0.473390000000     0.041993   
H112     H      0.164420000000     0.661850000000     0.487480000000     0.0387365  
H113     H      0.279290000000     0.462270000000     0.397820000000     0.0342213  
H114     H      0.276620000000     0.459920000000     0.341710000000     0.0383202  
H115     H      0.218830000000     0.539790000000     0.341000000000     0.0434243  
H116     H      0.182130000000     0.543900000000     0.410270000000     0.0429101  
H117     H      0.215070000000     0.458760000000     0.090950000000     0.0357557  
H118     H      0.216540000000     0.457300000000     0.147170000000     0.0388557  
H119     H      0.272530000000     0.538440000000     0.147880000000     0.0437253  
H120     H      0.310280000000     0.543080000000     0.079490000000     0.0425797  
H121     H      0.037560000000     0.723700000000     0.398300000000     0.0341568  
H122     H      0.038220000000     0.724560000000     0.342240000000     0.0366739  
H123     H      0.453410000000     0.774690000000     0.341910000000     0.0417215  
H124     H      0.419670000000     0.763160000000     0.411710000000     0.0405908  
H125     H      0.530990000000     0.711920000000     0.091720000000     0.0341476  
H126     H      0.532560000000     0.713780000000     0.147930000000     0.0378421  
H127     H      0.451530000000     0.769890000000     0.148460000000     0.0433364  
H128     H      0.447840000000     0.807770000000     0.079850000000     0.0427187  
H129     H      0.149600000000     0.968650000000     0.282940000000     0.035641   
H130     H      0.093660000000     0.969450000000     0.284950000000     0.0388052  
H131     H      0.091300000000     0.526080000000     0.204280000000     0.0441279  
H132     H      0.159280000000     0.564970000000     0.199670000000     0.0433473  
H133     H      0.341970000000     0.967060000000     0.206990000000     0.0348941  
H134     H      0.398000000000     0.967120000000     0.206230000000     0.0375396  
H135     H      0.399260000000     0.522680000000     0.287680000000     0.0437566  
H136     H      0.331800000000     0.562520000000     0.291180000000     0.0438323  
H137     H      0.026410000000     0.842550000000     0.205710000000     0.0345846  
H138     H      0.025200000000     0.898830000000     0.204610000000     0.0380336  
H139     H      0.470190000000     0.899260000000     0.286430000000     0.0439324  
H140     H      0.431960000000     0.831090000000     0.290830000000     0.0427017  
H141     H      0.460870000000     0.649460000000     0.210620000000     0.0348425  
H142     H      0.463290000000     0.593340000000     0.208330000000     0.0381979  
H143     H      0.021330000000     0.592500000000     0.288020000000     0.0439122  
H144     H      0.058300000000     0.661540000000     0.292020000000     0.0427697  
H145     H      0.342360000000     0.783110000000     0.522370000000     0.0336401  
H146     H      0.398210000000     0.784550000000     0.521370000000     0.0371859  
H147     H      0.399760000000     0.703290000000     0.965540000000     0.0415689  
H148     H      0.330670000000     0.667450000000     0.975740000000     0.0377147  
H149     H      0.091960000000     0.779000000000     0.534770000000     0.0345923  
H150     H      0.148360000000     0.777920000000     0.536710000000     0.0370603  
H151     H      0.149920000000     0.721280000000     0.956090000000     0.0428623  
H152     H      0.082930000000     0.681260000000     0.953500000000     0.0421161  
H153     H      0.222220000000     0.901250000000     0.452170000000     0.0341482  
H154     H      0.223830000000     0.845020000000     0.450380000000     0.0377878  
H155     H      0.275990000000     0.843860000000     0.534000000000     0.0420362  
H156     H      0.314160000000     0.912370000000     0.539710000000     0.0421165  
H157     H      0.283970000000     0.651610000000     0.023970000000     0.0321526  
H158     H      0.286420000000     0.595460000000     0.021590000000     0.0365599  
H159     H      0.200480000000     0.593590000000     0.973390000000     0.0418642  
H160     H      0.164420000000     0.661850000000     0.987480000000     0.0382079  
H161     H      0.279290000000     0.462270000000     0.897820000000     0.0341098  
H162     H      0.276620000000     0.459920000000     0.841710000000     0.0382793  
H163     H      0.218830000000     0.539790000000     0.841000000000     0.0434136  
H164     H      0.182130000000     0.543900000000     0.910270000000     0.0427994  
H165     H      0.215070000000     0.458760000000     0.590950000000     0.035412   
H166     H      0.216540000000     0.457300000000     0.647170000000     0.0387641  
H167     H      0.272530000000     0.538440000000     0.647880000000     0.0436837  
H168     H      0.310280000000     0.543080000000     0.579490000000     0.0422593  
H169     H      0.037560000000     0.723700000000     0.898300000000     0.0341313  
H170     H      0.038220000000     0.724560000000     0.842240000000     0.0366601  
H171     H      0.453410000000     0.774690000000     0.841910000000     0.0417108  
H172     H      0.419670000000     0.763160000000     0.911710000000     0.0405337  
H173     H      0.530990000000     0.711920000000     0.591720000000     0.0337487  
H174     H      0.532560000000     0.713780000000     0.647930000000     0.0377222  
H175     H      0.451530000000     0.769890000000     0.648460000000     0.0433007  
H176     H      0.447840000000     0.807770000000     0.579850000000     0.0423963  
H177     H      0.149600000000     0.968650000000     0.782940000000     0.0356188  
H178     H      0.093660000000     0.969450000000     0.784950000000     0.0387587  
H179     H      0.091300000000     0.526080000000     0.704280000000     0.0439987  
H180     H      0.159280000000     0.564970000000     0.699680000000     0.0432984  
H181     H      0.341970000000     0.967060000000     0.706990000000     0.0348411  
H182     H      0.398000000000     0.967120000000     0.706230000000     0.0374515  
H183     H      0.399260000000     0.522680000000     0.787680000000     0.0437054  
H184     H      0.331800000000     0.562520000000     0.791180000000     0.0438174  
H185     H      0.026410000000     0.842550000000     0.705710000000     0.0345083  
H186     H      0.025200000000     0.898830000000     0.704610000000     0.0379279  
H187     H      0.470190000000     0.899260000000     0.786430000000     0.0438859  
H188     H      0.431960000000     0.831090000000     0.790830000000     0.0426839  
H189     H      0.460870000000     0.649460000000     0.710620000000     0.0347866  
H190     H      0.463290000000     0.593340000000     0.708330000000     0.0380915  
H191     H      0.021330000000     0.592500000000     0.788020000000     0.043881   
H192     H      0.058300000000     0.661540000000     0.792020000000     0.0427588  
H193     H      0.842360000000     0.283110000000     0.022370000000     0.0337655  
H194     H      0.898210000000     0.284550000000     0.021360000000     0.0374637  
H195     H      0.899760000000     0.203290000000     0.465540000000     0.0417375  
H196     H      0.830670000000     0.167450000000     0.475740000000     0.0385996  
H197     H      0.591960000000     0.279000000000     0.034770000000     0.0344458  
H198     H      0.648360000000     0.277920000000     0.036710000000     0.037056   
H199     H      0.649920000000     0.221290000000     0.456090000000     0.0428021  
H200     H      0.582930000000     0.181260000000     0.453500000000     0.042255   
H201     H      0.722220000000     0.401250000000     0.952170000000     0.0343571  
H202     H      0.723830000000     0.345020000000     0.950380000000     0.0377635  
H203     H      0.775990000000     0.343860000000     0.034000000000     0.0419396  
H204     H      0.814160000000     0.412370000000     0.039710000000     0.043177   
H205     H      0.783970000000     0.151610000000     0.523970000000     0.0319189  
H206     H      0.786420000000     0.095460000000     0.521590000000     0.0366495  
H207     H      0.700480000000     0.093580000000     0.473390000000     0.0423428  
H208     H      0.664420000000     0.161850000000     0.487480000000     0.0387957  
H209     H      0.779290000000     0.962270000000     0.397820000000     0.0356488  
H210     H      0.776620000000     0.959920000000     0.341710000000     0.0373333  
H211     H      0.718830000000     0.039790000000     0.341000000000     0.0426721  
H212     H      0.682130000000     0.043900000000     0.410270000000     0.043618   
H213     H      0.715070000000     0.958760000000     0.090950000000     0.0355298  
H214     H      0.716540000000     0.957300000000     0.147170000000     0.0385012  
H215     H      0.772530000000     0.038440000000     0.147880000000     0.0434974  
H216     H      0.810280000000     0.043080000000     0.079490000000     0.0436557  
H217     H      0.537570000000     0.223700000000     0.398300000000     0.0341519  
H218     H      0.538220000000     0.224560000000     0.342240000000     0.0368727  
H219     H      0.953410000000     0.274690000000     0.341910000000     0.0418424  
H220     H      0.919670000000     0.263160000000     0.411710000000     0.0406142  
H221     H      0.030990000000     0.211920000000     0.091720000000     0.0346234  
H222     H      0.032560000000     0.213780000000     0.147930000000     0.0380354  
H223     H      0.951530000000     0.269890000000     0.148460000000     0.0433346  
H224     H      0.947840000000     0.307770000000     0.079850000000     0.0424689  
H225     H      0.649600000000     0.468650000000     0.282940000000     0.0359135  
H226     H      0.593660000000     0.469460000000     0.284950000000     0.0386554  
H227     H      0.591300000000     0.026080000000     0.204280000000     0.0436279  
H228     H      0.659280000000     0.064970000000     0.199670000000     0.0431608  
H229     H      0.841970000000     0.467060000000     0.206990000000     0.0352096  
H230     H      0.898000000000     0.467120000000     0.206230000000     0.0377799  
H231     H      0.899260000000     0.022680000000     0.287680000000     0.0441331  
H232     H      0.831800000000     0.062520000000     0.291180000000     0.0436882  
H233     H      0.526410000000     0.342550000000     0.205710000000     0.0344569  
H234     H      0.525190000000     0.398830000000     0.204610000000     0.0382802  
H235     H      0.970190000000     0.399260000000     0.286430000000     0.0441196  
H236     H      0.931960000000     0.331090000000     0.290830000000     0.0428581  
H237     H      0.960870000000     0.149460000000     0.210620000000     0.0348743  
H238     H      0.963290000000     0.093340000000     0.208330000000     0.0387422  
H239     H      0.521330000000     0.092500000000     0.288020000000     0.044354   
H240     H      0.558300000000     0.161540000000     0.292020000000     0.0429643  
H241     H      0.842360000000     0.283110000000     0.522370000000     0.0336626  
H242     H      0.898210000000     0.284550000000     0.521370000000     0.037197   
H243     H      0.899760000000     0.203290000000     0.965540000000     0.0415955  
H244     H      0.830670000000     0.167450000000     0.975740000000     0.0378918  
H245     H      0.591960000000     0.279000000000     0.534770000000     0.0342224  
H246     H      0.648360000000     0.277920000000     0.536710000000     0.0369813  
H247     H      0.649920000000     0.221290000000     0.956090000000     0.0428758  
H248     H      0.582930000000     0.181260000000     0.953500000000     0.0419953  
H249     H      0.722220000000     0.401250000000     0.452170000000     0.0344192  
H250     H      0.723830000000     0.345020000000     0.450380000000     0.0378127  
H251     H      0.775990000000     0.343860000000     0.534000000000     0.0420457  
H252     H      0.814160000000     0.412370000000     0.539710000000     0.0425397  
H253     H      0.783970000000     0.151610000000     0.023970000000     0.0322523  
H254     H      0.786420000000     0.095460000000     0.021590000000     0.0369681  
H255     H      0.700480000000     0.093580000000     0.973390000000     0.0422133  
H256     H      0.664420000000     0.161850000000     0.987480000000     0.0382665  
H257     H      0.779290000000     0.962270000000     0.897820000000     0.0355365  
H258     H      0.776620000000     0.959920000000     0.841710000000     0.037293   
H259     H      0.718830000000     0.039790000000     0.841000000000     0.0426619  
H260     H      0.682130000000     0.043900000000     0.910270000000     0.0435069  
H261     H      0.715070000000     0.958760000000     0.590950000000     0.0351847  
H262     H      0.716540000000     0.957300000000     0.647170000000     0.0384085  
H263     H      0.772530000000     0.038440000000     0.647880000000     0.0434553  
H264     H      0.810280000000     0.043080000000     0.579490000000     0.0433393  
H265     H      0.537570000000     0.223700000000     0.898300000000     0.0341263  
H266     H      0.538220000000     0.224560000000     0.842240000000     0.0368591  
H267     H      0.953410000000     0.274690000000     0.841910000000     0.0418318  
H268     H      0.919670000000     0.263160000000     0.911710000000     0.0405571  
H269     H      0.030990000000     0.211920000000     0.591720000000     0.0342302  
H270     H      0.032560000000     0.213780000000     0.647930000000     0.0379169  
H271     H      0.951530000000     0.269890000000     0.648460000000     0.043299   
H272     H      0.947840000000     0.307770000000     0.579850000000     0.0421465  
H273     H      0.649600000000     0.468650000000     0.782940000000     0.0358906  
H274     H      0.593660000000     0.469460000000     0.784950000000     0.0386075  
H275     H      0.591300000000     0.026080000000     0.704280000000     0.0434989  
H276     H      0.659280000000     0.064970000000     0.699680000000     0.0431113  
H277     H      0.841970000000     0.467060000000     0.706990000000     0.0351574  
H278     H      0.898000000000     0.467120000000     0.706230000000     0.0376923  
H279     H      0.899260000000     0.022680000000     0.787680000000     0.0440814  
H280     H      0.831800000000     0.062520000000     0.791180000000     0.0436734  
H281     H      0.526410000000     0.342550000000     0.705710000000     0.0343796  
H282     H      0.525190000000     0.398830000000     0.704610000000     0.038174   
H283     H      0.970190000000     0.399260000000     0.786430000000     0.0440732  
H284     H      0.931960000000     0.331090000000     0.790830000000     0.0428403  
H285     H      0.960870000000     0.149460000000     0.710620000000     0.0348186  
H286     H      0.963290000000     0.093340000000     0.708330000000     0.038637   
H287     H      0.521330000000     0.092500000000     0.788020000000     0.044323   
H288     H      0.558300000000     0.161540000000     0.792020000000     0.0429536  
H289     H      0.842360000000     0.783110000000     0.022370000000     0.0337078  
H290     H      0.898210000000     0.784550000000     0.021360000000     0.0373683  
H291     H      0.899760000000     0.703290000000     0.465540000000     0.0415435  
H292     H      0.830670000000     0.667450000000     0.475740000000     0.0383617  
H293     H      0.591960000000     0.779000000000     0.034770000000     0.0343157  
H294     H      0.648360000000     0.777920000000     0.036710000000     0.0369824  
H295     H      0.649920000000     0.721280000000     0.456090000000     0.0427546  
H296     H      0.582930000000     0.681260000000     0.453500000000     0.0419461  
H297     H      0.722220000000     0.901250000000     0.952170000000     0.0339785  
H298     H      0.723830000000     0.845020000000     0.950380000000     0.0376508  
H299     H      0.775990000000     0.843860000000     0.034000000000     0.0419041  
H300     H      0.814160000000     0.912370000000     0.039710000000     0.0426488  
H301     H      0.783970000000     0.651610000000     0.523970000000     0.0317849  
H302     H      0.786420000000     0.595460000000     0.521590000000     0.0361803  
H303     H      0.700480000000     0.593590000000     0.473390000000     0.0418839  
H304     H      0.664420000000     0.661850000000     0.487480000000     0.0385966  
H305     H      0.779290000000     0.462270000000     0.397820000000     0.0341697  
H306     H      0.776620000000     0.459920000000     0.341710000000     0.0382874  
H307     H      0.718830000000     0.539790000000     0.341000000000     0.0433672  
H308     H      0.682130000000     0.543900000000     0.410270000000     0.0427026  
H309     H      0.715070000000     0.458760000000     0.090950000000     0.0356475  
H310     H      0.716540000000     0.457300000000     0.147170000000     0.0387751  
H311     H      0.772530000000     0.538440000000     0.147880000000     0.0436974  
H312     H      0.810280000000     0.543080000000     0.079490000000     0.0424744  
H313     H      0.537570000000     0.723700000000     0.398300000000     0.0340581  
H314     H      0.538220000000     0.724560000000     0.342240000000     0.0368092  
H315     H      0.953410000000     0.774690000000     0.341910000000     0.0418103  
H316     H      0.919670000000     0.763160000000     0.411710000000     0.0405906  
H317     H      0.030990000000     0.711920000000     0.091720000000     0.0344563  
H318     H      0.032560000000     0.713780000000     0.147930000000     0.0379142  
H319     H      0.951530000000     0.769890000000     0.148460000000     0.0432845  
H320     H      0.947840000000     0.807770000000     0.079850000000     0.0422872  
H321     H      0.649600000000     0.968650000000     0.282940000000     0.0354823  
H322     H      0.593660000000     0.969450000000     0.284950000000     0.0382984  
H323     H      0.591300000000     0.526080000000     0.204280000000     0.0436522  
H324     H      0.659280000000     0.564970000000     0.199670000000     0.0432429  
H325     H      0.841970000000     0.967060000000     0.206990000000     0.034833   
H326     H      0.898000000000     0.967120000000     0.206230000000     0.0373172  
H327     H      0.899260000000     0.522680000000     0.287680000000     0.0435895  
H328     H      0.831800000000     0.562520000000     0.291180000000     0.0437831  
H329     H      0.526410000000     0.842550000000     0.205710000000     0.0343329  
H330     H      0.525190000000     0.898830000000     0.204610000000     0.0378681  
H331     H      0.970190000000     0.899260000000     0.286430000000     0.0438456  
H332     H      0.931960000000     0.831090000000     0.290830000000     0.0427891  
H333     H      0.960870000000     0.649460000000     0.210620000000     0.0346692  
H334     H      0.963290000000     0.593340000000     0.208330000000     0.0379484  
H335     H      0.521330000000     0.592500000000     0.288020000000     0.0435974  
H336     H      0.558300000000     0.661540000000     0.292020000000     0.0428255  
H337     H      0.842360000000     0.783110000000     0.522370000000     0.0336045  
H338     H      0.898210000000     0.784550000000     0.521370000000     0.0371009  
H339     H      0.899760000000     0.703290000000     0.965540000000     0.0414015  
H340     H      0.830670000000     0.667450000000     0.975740000000     0.0376526  
H341     H      0.591960000000     0.779000000000     0.534770000000     0.0340916  
H342     H      0.648360000000     0.777920000000     0.536710000000     0.0369074  
H343     H      0.649920000000     0.721280000000     0.956090000000     0.0428283  
H344     H      0.582930000000     0.681260000000     0.953500000000     0.0416866  
H345     H      0.722220000000     0.901250000000     0.452170000000     0.0340401  
H346     H      0.723830000000     0.845020000000     0.450380000000     0.0376998  
H347     H      0.775990000000     0.843860000000     0.534000000000     0.0420102  
H348     H      0.814160000000     0.912370000000     0.539710000000     0.0420092  
H349     H      0.783970000000     0.651610000000     0.023970000000     0.03212    
H350     H      0.786420000000     0.595460000000     0.021590000000     0.0365017  
H351     H      0.700480000000     0.593590000000     0.973390000000     0.0417549  
H352     H      0.664420000000     0.661850000000     0.987480000000     0.0380674  
H353     H      0.779290000000     0.462270000000     0.897820000000     0.0340583  
H354     H      0.776620000000     0.459920000000     0.841710000000     0.0382465  
H355     H      0.718830000000     0.539790000000     0.841000000000     0.0433565  
H356     H      0.682130000000     0.543900000000     0.910270000000     0.0425917  
H357     H      0.715070000000     0.458760000000     0.590950000000     0.0353027  
H358     H      0.716540000000     0.457300000000     0.647170000000     0.0386829  
H359     H      0.772530000000     0.538440000000     0.647880000000     0.0436558  
H360     H      0.810280000000     0.543080000000     0.579490000000     0.0421535  
H361     H      0.537570000000     0.723700000000     0.898300000000     0.0340325  
H362     H      0.538220000000     0.724560000000     0.842240000000     0.0367957  
H363     H      0.953410000000     0.774690000000     0.841910000000     0.0417997  
H364     H      0.919670000000     0.763160000000     0.911710000000     0.0405333  
H365     H      0.030990000000     0.711920000000     0.591720000000     0.0340613  
H366     H      0.032560000000     0.713780000000     0.647930000000     0.037795   
H367     H      0.951530000000     0.769890000000     0.648460000000     0.0432486  
H368     H      0.947840000000     0.807770000000     0.579850000000     0.0419638  
H369     H      0.649600000000     0.968650000000     0.782940000000     0.0354599  
H370     H      0.593660000000     0.969450000000     0.784950000000     0.0382514  
H371     H      0.591300000000     0.526080000000     0.704280000000     0.0435216  
H372     H      0.659280000000     0.564970000000     0.699680000000     0.0431937  
H373     H      0.841970000000     0.967060000000     0.706990000000     0.0347799  
H374     H      0.898000000000     0.967120000000     0.706230000000     0.0372286  
H375     H      0.899260000000     0.522680000000     0.787680000000     0.0435385  
H376     H      0.831800000000     0.562520000000     0.791180000000     0.0437682  
H377     H      0.526410000000     0.842550000000     0.705710000000     0.0342552  
H378     H      0.525190000000     0.898830000000     0.704610000000     0.0377612  
H379     H      0.970190000000     0.899260000000     0.786430000000     0.0437994  
H380     H      0.931960000000     0.831090000000     0.790830000000     0.0427712  
H381     H      0.960870000000     0.649460000000     0.710620000000     0.0346128  
H382     H      0.963290000000     0.593340000000     0.708330000000     0.0378415  
H383     H      0.521330000000     0.592500000000     0.788020000000     0.043566   
H384     H      0.558300000000     0.661540000000     0.792020000000     0.0428146  
N1       N      0.402890000000     0.244000000000     0.493310000000    -0.173739   
N2       N      0.338740000000     0.243720000000     0.492650000000    -0.182437   
N3       N      0.152990000000     0.249520000000     0.996500000000    -0.174633   
N4       N      0.088810000000     0.248860000000     0.995680000000    -0.183718   
N5       N      0.249910000000     0.340540000000     0.492160000000    -0.173517   
N6       N      0.249840000000     0.404780000000     0.493050000000    -0.182509   
N7       N      0.243670000000     0.090660000000     0.997130000000    -0.174493   
N8       N      0.242040000000     0.154770000000     0.998030000000    -0.183757   
N9       N      0.247200000000     0.499500000000     0.337460000000    -0.173206   
N10      N      0.248820000000     0.501030000000     0.401600000000    -0.182823   
N11      N      0.244920000000     0.997620000000     0.151490000000    -0.175728   
N12      N      0.244650000000     0.998200000000     0.087230000000    -0.184444   
N13      N      0.495800000000     0.249670000000     0.338200000000    -0.173469   
N14      N      0.496580000000     0.250960000000     0.402370000000    -0.18205    
N15      N      0.992360000000     0.242340000000     0.152130000000    -0.174744   
N16      N      0.991760000000     0.241730000000     0.087920000000    -0.184718   
N17      N      0.088520000000     0.497960000000     0.244800000000    -0.172936   
N18      N      0.152780000000     0.498540000000     0.243620000000    -0.182061   
N19      N      0.402590000000     0.995100000000     0.246820000000    -0.177103   
N20      N      0.338370000000     0.996650000000     0.246490000000    -0.184529   
N21      N      0.997350000000     0.403010000000     0.245320000000    -0.174528   
N22      N      0.997190000000     0.338750000000     0.245400000000    -0.184151   
N23      N      0.492800000000     0.088990000000     0.247830000000    -0.172717   
N24      N      0.491460000000     0.153180000000     0.249280000000    -0.18278    
N25      N      0.402890000000     0.244000000000     0.993300000000    -0.175366   
N26      N      0.338740000000     0.243720000000     0.992650000000    -0.183535   
N27      N      0.152990000000     0.249520000000     0.496500000000    -0.17357    
N28      N      0.088810000000     0.248860000000     0.495680000000    -0.182107   
N29      N      0.249910000000     0.340540000000     0.992160000000    -0.174603   
N30      N      0.249840000000     0.404780000000     0.993050000000    -0.184071   
N31      N      0.243670000000     0.090660000000     0.497130000000    -0.172863   
N32      N      0.242040000000     0.154770000000     0.498040000000    -0.182688   
N33      N      0.247200000000     0.499500000000     0.837460000000    -0.173209   
N34      N      0.248820000000     0.501030000000     0.901600000000    -0.182813   
N35      N      0.244920000000     0.997620000000     0.651490000000    -0.17574    
N36      N      0.244650000000     0.998200000000     0.587230000000    -0.184669   
N37      N      0.495800000000     0.249670000000     0.838200000000    -0.173469   
N38      N      0.496580000000     0.250960000000     0.902370000000    -0.182049   
N39      N      0.992360000000     0.242340000000     0.652130000000    -0.174759   
N40      N      0.991760000000     0.241730000000     0.587920000000    -0.184938   
N41      N      0.088520000000     0.497960000000     0.744800000000    -0.172975   
N42      N      0.152780000000     0.498540000000     0.743620000000    -0.182063   
N43      N      0.402590000000     0.995100000000     0.746820000000    -0.177124   
N44      N      0.338370000000     0.996650000000     0.746490000000    -0.184517   
N45      N      0.997350000000     0.403010000000     0.745320000000    -0.174544   
N46      N      0.997190000000     0.338750000000     0.745400000000    -0.184159   
N47      N      0.492800000000     0.088990000000     0.747830000000    -0.172732   
N48      N      0.491460000000     0.153180000000     0.749290000000    -0.182786   
N49      N      0.402890000000     0.744000000000     0.493310000000    -0.173768   
N50      N      0.338740000000     0.743720000000     0.492650000000    -0.182447   
N51      N      0.152990000000     0.749520000000     0.996500000000    -0.174644   
N52      N      0.088810000000     0.748860000000     0.995680000000    -0.183772   
N53      N      0.249910000000     0.840540000000     0.492160000000    -0.173524   
N54      N      0.249840000000     0.904780000000     0.493050000000    -0.18253    
N55      N      0.243670000000     0.590660000000     0.997130000000    -0.174998   
N56      N      0.242040000000     0.654770000000     0.998030000000    -0.183778   
N57      N      0.247200000000     0.999490000000     0.337460000000    -0.176842   
N58      N      0.248820000000     0.001030000000     0.401600000000    -0.172853   
N59      N      0.244920000000     0.497620000000     0.151490000000    -0.173125   
N60      N      0.244650000000     0.498200000000     0.087230000000    -0.182283   
N61      N      0.495800000000     0.749670000000     0.338200000000    -0.173479   
N62      N      0.496580000000     0.750960000000     0.402370000000    -0.182088   
N63      N      0.992360000000     0.742340000000     0.152130000000    -0.174767   
N64      N      0.991760000000     0.741730000000     0.087920000000    -0.184776   
N65      N      0.088520000000     0.997960000000     0.244800000000    -0.175351   
N66      N      0.152780000000     0.998540000000     0.243620000000    -0.184454   
N67      N      0.402590000000     0.495100000000     0.246820000000    -0.173361   
N68      N      0.338370000000     0.496650000000     0.246490000000    -0.182207   
N69      N      0.997350000000     0.903010000000     0.245320000000    -0.174494   
N70      N      0.997190000000     0.838750000000     0.245400000000    -0.184162   
N71      N      0.492800000000     0.588990000000     0.247830000000    -0.17323    
N72      N      0.491460000000     0.653180000000     0.249280000000    -0.182799   
N73      N      0.402890000000     0.744000000000     0.993300000000    -0.175398   
N74      N      0.338740000000     0.743720000000     0.992650000000    -0.183548   
N75      N      0.152990000000     0.749520000000     0.496500000000    -0.17358    
N76      N      0.088810000000     0.748860000000     0.495680000000    -0.182158   
N77      N      0.249910000000     0.840540000000     0.992160000000    -0.17461    
N78      N      0.249840000000     0.904780000000     0.993050000000    -0.184093   
N79      N      0.243670000000     0.590660000000     0.497130000000    -0.173362   
N80      N      0.242040000000     0.654770000000     0.498040000000    -0.182706   
N81      N      0.247200000000     0.999490000000     0.837460000000    -0.176844   
N82      N      0.248820000000     0.001030000000     0.901600000000    -0.17285    
N83      N      0.244920000000     0.497620000000     0.651490000000    -0.17313    
N84      N      0.244650000000     0.498200000000     0.587230000000    -0.182503   
N85      N      0.495800000000     0.749670000000     0.838200000000    -0.173478   
N86      N      0.496580000000     0.750960000000     0.902370000000    -0.182086   
N87      N      0.992360000000     0.742340000000     0.652130000000    -0.174782   
N88      N      0.991760000000     0.741730000000     0.587920000000    -0.184997   
N89      N      0.088520000000     0.997960000000     0.744800000000    -0.175392   
N90      N      0.152780000000     0.998540000000     0.743620000000    -0.184459   
N91      N      0.402590000000     0.495100000000     0.746820000000    -0.173379   
N92      N      0.338370000000     0.496650000000     0.746490000000    -0.182195   
N93      N      0.997350000000     0.903010000000     0.745320000000    -0.174511   
N94      N      0.997190000000     0.838750000000     0.745400000000    -0.18417    
N95      N      0.492800000000     0.588990000000     0.747830000000    -0.173246   
N96      N      0.491460000000     0.653180000000     0.749290000000    -0.182805   
N97      N      0.902890000000     0.244000000000     0.493310000000    -0.173711   
N98      N      0.838740000000     0.243720000000     0.492650000000    -0.182441   
N99      N      0.652990000000     0.249520000000     0.996500000000    -0.174718   
N100     N      0.588810000000     0.248860000000     0.995680000000    -0.183956   
N101     N      0.749910000000     0.340540000000     0.492160000000    -0.173527   
N102     N      0.749840000000     0.404780000000     0.493050000000    -0.182531   
N103     N      0.743670000000     0.090660000000     0.997130000000    -0.174513   
N104     N      0.742040000000     0.154770000000     0.998030000000    -0.183763   
N105     N      0.747200000000     0.499500000000     0.337460000000    -0.173216   
N106     N      0.748820000000     0.501030000000     0.401600000000    -0.182842   
N107     N      0.744920000000     0.997620000000     0.151490000000    -0.175738   
N108     N      0.744650000000     0.998200000000     0.087230000000    -0.184466   
N109     N      0.995800000000     0.249670000000     0.338200000000    -0.174933   
N110     N      0.996580000000     0.250960000000     0.402370000000    -0.184288   
N111     N      0.492360000000     0.242340000000     0.152130000000    -0.173255   
N112     N      0.491760000000     0.241730000000     0.087920000000    -0.182517   
N113     N      0.588520000000     0.497960000000     0.244800000000    -0.173249   
N114     N      0.652770000000     0.498540000000     0.243620000000    -0.182006   
N115     N      0.902590000000     0.995100000000     0.246820000000    -0.177077   
N116     N      0.838370000000     0.996650000000     0.246490000000    -0.184532   
N117     N      0.497350000000     0.403010000000     0.245320000000    -0.173144   
N118     N      0.497190000000     0.338750000000     0.245400000000    -0.182621   
N119     N      0.992800000000     0.088990000000     0.247830000000    -0.174955   
N120     N      0.991460000000     0.153180000000     0.249280000000    -0.184161   
N121     N      0.902890000000     0.244000000000     0.993300000000    -0.175339   
N122     N      0.838740000000     0.243720000000     0.992650000000    -0.18354    
N123     N      0.652990000000     0.249520000000     0.496500000000    -0.173652   
N124     N      0.588810000000     0.248860000000     0.495680000000    -0.182339   
N125     N      0.749910000000     0.340540000000     0.992160000000    -0.174615   
N126     N      0.749840000000     0.404780000000     0.993050000000    -0.184096   
N127     N      0.743670000000     0.090660000000     0.497130000000    -0.17288    
N128     N      0.742040000000     0.154770000000     0.498040000000    -0.182693   
N129     N      0.747200000000     0.499500000000     0.837460000000    -0.17322    
N130     N      0.748820000000     0.501030000000     0.901600000000    -0.182832   
N131     N      0.744920000000     0.997620000000     0.651490000000    -0.17575    
N132     N      0.744650000000     0.998200000000     0.587230000000    -0.184691   
N133     N      0.995800000000     0.249670000000     0.838200000000    -0.174933   
N134     N      0.996580000000     0.250960000000     0.902370000000    -0.184286   
N135     N      0.492360000000     0.242340000000     0.652130000000    -0.173265   
N136     N      0.491760000000     0.241730000000     0.587920000000    -0.182731   
N137     N      0.588520000000     0.497960000000     0.744800000000    -0.173288   
N138     N      0.652770000000     0.498540000000     0.743620000000    -0.182008   
N139     N      0.902590000000     0.995100000000     0.746820000000    -0.177098   
N140     N      0.838370000000     0.996650000000     0.746490000000    -0.18452    
N141     N      0.497350000000     0.403010000000     0.745320000000    -0.173159   
N142     N      0.497190000000     0.338750000000     0.745400000000    -0.182627   
N143     N      0.992800000000     0.088990000000     0.747830000000    -0.174972   
N144     N      0.991460000000     0.153180000000     0.749290000000    -0.184169   
N145     N      0.902890000000     0.744000000000     0.493310000000    -0.173741   
N146     N      0.838740000000     0.743720000000     0.492650000000    -0.182451   
N147     N      0.652990000000     0.749520000000     0.996500000000    -0.174729   
N148     N      0.588810000000     0.748860000000     0.995680000000    -0.184011   
N149     N      0.749910000000     0.840540000000     0.492160000000    -0.173535   
N150     N      0.749840000000     0.904780000000     0.493050000000    -0.182552   
N151     N      0.743670000000     0.590660000000     0.997130000000    -0.175018   
N152     N      0.742040000000     0.654770000000     0.998030000000    -0.183785   
N153     N      0.747200000000     0.999490000000     0.337460000000    -0.176855   
N154     N      0.748820000000     0.001030000000     0.401600000000    -0.172862   
N155     N      0.744920000000     0.497620000000     0.151490000000    -0.173133   
N156     N      0.744650000000     0.498200000000     0.087230000000    -0.182303   
N157     N      0.995800000000     0.749670000000     0.338200000000    -0.174945   
N158     N      0.996580000000     0.750960000000     0.402370000000    -0.184329   
N159     N      0.492360000000     0.742340000000     0.152130000000    -0.173276   
N160     N      0.491760000000     0.741730000000     0.087920000000    -0.182572   
N161     N      0.588520000000     0.997960000000     0.244800000000    -0.175667   
N162     N      0.652770000000     0.998540000000     0.243620000000    -0.184408   
N163     N      0.902590000000     0.495100000000     0.246820000000    -0.173337   
N164     N      0.838370000000     0.496650000000     0.246490000000    -0.182211   
N165     N      0.497350000000     0.903010000000     0.245320000000    -0.173111   
N166     N      0.497190000000     0.838750000000     0.245400000000    -0.182632   
N167     N      0.992800000000     0.588990000000     0.247830000000    -0.175475   
N168     N      0.991460000000     0.653180000000     0.249280000000    -0.184184   
N169     N      0.902890000000     0.744000000000     0.993300000000    -0.175371   
N170     N      0.838740000000     0.743720000000     0.992650000000    -0.183552   
N171     N      0.652990000000     0.749520000000     0.496500000000    -0.173662   
N172     N      0.588810000000     0.748860000000     0.495680000000    -0.182392   
N173     N      0.749910000000     0.840540000000     0.992160000000    -0.174622   
N174     N      0.749840000000     0.904780000000     0.993050000000    -0.184118   
N175     N      0.743670000000     0.590660000000     0.497130000000    -0.17338    
N176     N      0.742040000000     0.654770000000     0.498040000000    -0.182711   
N177     N      0.747200000000     0.999490000000     0.837460000000    -0.176858   
N178     N      0.748820000000     0.001030000000     0.901600000000    -0.172859   
N179     N      0.744920000000     0.497620000000     0.651490000000    -0.173138   
N180     N      0.744650000000     0.498200000000     0.587230000000    -0.182524   
N181     N      0.995800000000     0.749670000000     0.838200000000    -0.174945   
N182     N      0.996580000000     0.750960000000     0.902370000000    -0.184326   
N183     N      0.492360000000     0.742340000000     0.652130000000    -0.173287   
N184     N      0.491760000000     0.741730000000     0.587920000000    -0.182787   
N185     N      0.588520000000     0.997960000000     0.744800000000    -0.175709   
N186     N      0.652770000000     0.998540000000     0.743620000000    -0.184413   
N187     N      0.902590000000     0.495100000000     0.746820000000    -0.173355   
N188     N      0.838370000000     0.496650000000     0.746490000000    -0.182199   
N189     N      0.497350000000     0.903010000000     0.745320000000    -0.173126   
N190     N      0.497190000000     0.838750000000     0.745400000000    -0.182638   
N191     N      0.992800000000     0.588990000000     0.747830000000    -0.175493   
N192     N      0.991460000000     0.653180000000     0.749290000000    -0.184192   
O1       O      0.489730000000     0.043020000000     0.221380000000    -0.38609    
O2       O      0.500630000000     0.449600000000     0.219970000000    -0.391481   
O3       O      0.448680000000     0.491030000000     0.221000000000    -0.393161   
O4       O      0.041760000000     0.001690000000     0.220110000000    -0.378321   
O5       O      0.042630000000     0.992580000000     0.270830000000    -0.389344   
O6       O      0.449130000000     0.498980000000     0.271930000000    -0.393728   
O7       O      0.992760000000     0.449120000000     0.270900000000    -0.394772   
O8       O      0.998940000000     0.042360000000     0.272100000000    -0.391399   
O9       O      0.018410000000     0.198440000000     0.249080000000    -0.39327    
O10      O      0.021300000000     0.291780000000     0.240760000000    -0.388285   
O11      O      0.020760000000     0.247810000000     0.291520000000    -0.389815   
O12      O      0.018890000000     0.240460000000     0.198020000000    -0.389808   
O13      O      0.467880000000     0.247830000000     0.198800000000    -0.395278   
O14      O      0.469180000000     0.247620000000     0.292470000000    -0.394437   
O15      O      0.470090000000     0.293590000000     0.246730000000    -0.397515   
O16      O      0.467030000000     0.199990000000     0.244800000000    -0.393448   
O17      O      0.292040000000     0.471970000000     0.240390000000    -0.393462   
O18      O      0.198750000000     0.473000000000     0.249160000000    -0.393189   
O19      O      0.240820000000     0.472160000000     0.197950000000    -0.391533   
O20      O      0.250090000000     0.473080000000     0.291490000000    -0.391993   
O21      O      0.241690000000     0.023950000000     0.290850000000    -0.389224   
O22      O      0.249990000000     0.022880000000     0.197750000000    -0.389209   
O23      O      0.199220000000     0.023720000000     0.239890000000    -0.387908   
O24      O      0.292430000000     0.022850000000     0.248840000000    -0.387915   
O25      O      0.271310000000     0.000130000000     0.041800000000    -0.38362    
O26      O      0.273640000000     0.997100000000     0.448240000000    -0.390146   
O27      O      0.271060000000     0.045360000000     0.495230000000    -0.389158   
O28      O      0.273910000000     0.451710000000     0.996820000000    -0.39623    
O29      O      0.222870000000     0.450070000000     0.989550000000    -0.39451    
O30      O      0.219510000000     0.043550000000     0.496000000000    -0.389046   
O31      O      0.222190000000     0.500740000000     0.447020000000    -0.397337   
O32      O      0.220210000000     0.493180000000     0.040430000000    -0.389692   
O33      O      0.996220000000     0.218210000000     0.040620000000    -0.391199   
O34      O      0.998880000000     0.223080000000     0.446940000000    -0.397027   
O35      O      0.043510000000     0.221970000000     0.494230000000    -0.394213   
O36      O      0.449940000000     0.219400000000     0.991470000000    -0.392997   
O37      O      0.448260000000     0.270750000000     0.996410000000    -0.397707   
O38      O      0.041900000000     0.273390000000     0.498590000000    -0.389147   
O39      O      0.494980000000     0.274510000000     0.449840000000    -0.390782   
O40      O      0.492940000000     0.269690000000     0.043330000000    -0.395461   
O41      O      0.245840000000     0.201670000000     0.022210000000    -0.390918   
O42      O      0.249430000000     0.295160000000     0.019060000000    -0.394482   
O43      O      0.199800000000     0.251180000000     0.021690000000    -0.388648   
O44      O      0.293540000000     0.247470000000     0.019380000000    -0.393925   
O45      O      0.291900000000     0.243320000000     0.467930000000    -0.391891   
O46      O      0.198590000000     0.247720000000     0.470210000000    -0.397676   
O47      O      0.246500000000     0.293460000000     0.467570000000    -0.392119   
O48      O      0.242130000000     0.199750000000     0.470700000000    -0.393591   
O49      O      0.489730000000     0.043020000000     0.721380000000    -0.386154   
O50      O      0.500630000000     0.449600000000     0.719970000000    -0.391551   
O51      O      0.448680000000     0.491030000000     0.721000000000    -0.393224   
O52      O      0.041760000000     0.001690000000     0.720110000000    -0.378467   
O53      O      0.042630000000     0.992580000000     0.770830000000    -0.389273   
O54      O      0.449130000000     0.498980000000     0.771930000000    -0.39376    
O55      O      0.992760000000     0.449120000000     0.770900000000    -0.394805   
O56      O      0.998940000000     0.042360000000     0.772100000000    -0.391422   
O57      O      0.018410000000     0.198440000000     0.749080000000    -0.393278   
O58      O      0.021300000000     0.291780000000     0.740760000000    -0.388299   
O59      O      0.020760000000     0.247810000000     0.791520000000    -0.389815   
O60      O      0.018890000000     0.240460000000     0.698020000000    -0.389838   
O61      O      0.467880000000     0.247830000000     0.698800000000    -0.395302   
O62      O      0.469180000000     0.247620000000     0.792470000000    -0.394438   
O63      O      0.470090000000     0.293590000000     0.746730000000    -0.39752    
O64      O      0.467030000000     0.199990000000     0.744800000000    -0.393446   
O65      O      0.292040000000     0.471970000000     0.740390000000    -0.393481   
O66      O      0.198750000000     0.473000000000     0.749160000000    -0.393205   
O67      O      0.240820000000     0.472160000000     0.697950000000    -0.391555   
O68      O      0.250090000000     0.473080000000     0.791490000000    -0.392003   
O69      O      0.241690000000     0.023950000000     0.790850000000    -0.38923    
O70      O      0.249990000000     0.022880000000     0.697750000000    -0.389218   
O71      O      0.199220000000     0.023720000000     0.739890000000    -0.387906   
O72      O      0.292430000000     0.022850000000     0.748830000000    -0.387943   
O73      O      0.271310000000     0.000130000000     0.541810000000    -0.385768   
O74      O      0.273640000000     0.997100000000     0.948240000000    -0.389871   
O75      O      0.271060000000     0.045360000000     0.995230000000    -0.389888   
O76      O      0.273910000000     0.451710000000     0.496810000000    -0.395431   
O77      O      0.222870000000     0.450070000000     0.489550000000    -0.394196   
O78      O      0.219510000000     0.043550000000     0.996000000000    -0.389401   
O79      O      0.222190000000     0.500740000000     0.947020000000    -0.396964   
O80      O      0.220210000000     0.493180000000     0.540430000000    -0.392087   
O81      O      0.996220000000     0.218210000000     0.540620000000    -0.393591   
O82      O      0.998880000000     0.223080000000     0.946940000000    -0.396662   
O83      O      0.043510000000     0.221970000000     0.994230000000    -0.39454    
O84      O      0.449940000000     0.219400000000     0.491470000000    -0.392679   
O85      O      0.448260000000     0.270750000000     0.496410000000    -0.396924   
O86      O      0.041900000000     0.273390000000     0.998590000000    -0.389831   
O87      O      0.494980000000     0.274510000000     0.949840000000    -0.390552   
O88      O      0.492940000000     0.269690000000     0.543330000000    -0.397813   
O89      O      0.245840000000     0.201670000000     0.522210000000    -0.393874   
O90      O      0.249430000000     0.295160000000     0.519060000000    -0.397281   
O91      O      0.199800000000     0.251180000000     0.521690000000    -0.391585   
O92      O      0.293540000000     0.247470000000     0.519380000000    -0.396746   
O93      O      0.291900000000     0.243320000000     0.967930000000    -0.391074   
O94      O      0.198590000000     0.247720000000     0.970210000000    -0.396774   
O95      O      0.246500000000     0.293460000000     0.967570000000    -0.39134    
O96      O      0.242130000000     0.199750000000     0.970700000000    -0.392669   
O97      O      0.489730000000     0.543020000000     0.221380000000    -0.391548   
O98      O      0.500630000000     0.949600000000     0.219970000000    -0.390601   
O99      O      0.448680000000     0.991030000000     0.221000000000    -0.392921   
O100     O      0.041760000000     0.501690000000     0.220110000000    -0.389666   
O101     O      0.042630000000     0.492580000000     0.270830000000    -0.390705   
O102     O      0.449130000000     0.998980000000     0.271930000000    -0.395467   
O103     O      0.992760000000     0.949120000000     0.270900000000    -0.394021   
O104     O      0.998940000000     0.542360000000     0.272100000000    -0.396647   
O105     O      0.018410000000     0.698440000000     0.249080000000    -0.393289   
O106     O      0.021300000000     0.791780000000     0.240760000000    -0.388314   
O107     O      0.020760000000     0.747810000000     0.291520000000    -0.38982    
O108     O      0.018890000000     0.740460000000     0.198020000000    -0.389849   
O109     O      0.467880000000     0.747820000000     0.198800000000    -0.395338   
O110     O      0.469180000000     0.747620000000     0.292470000000    -0.394461   
O111     O      0.470090000000     0.793590000000     0.246730000000    -0.397527   
O112     O      0.467030000000     0.699990000000     0.244800000000    -0.393512   
O113     O      0.292040000000     0.971970000000     0.240390000000    -0.391596   
O114     O      0.198750000000     0.973000000000     0.249160000000    -0.39136    
O115     O      0.240820000000     0.972160000000     0.197950000000    -0.389719   
O116     O      0.250090000000     0.973080000000     0.291490000000    -0.390261   
O117     O      0.241690000000     0.523950000000     0.290850000000    -0.39554    
O118     O      0.249990000000     0.522880000000     0.197750000000    -0.395617   
O119     O      0.199220000000     0.523720000000     0.239890000000    -0.394265   
O120     O      0.292430000000     0.522850000000     0.248840000000    -0.39429    
O121     O      0.271310000000     0.500130000000     0.041800000000    -0.395472   
O122     O      0.273640000000     0.497100000000     0.448240000000    -0.393594   
O123     O      0.271060000000     0.545360000000     0.495230000000    -0.3945     
O124     O      0.273910000000     0.951710000000     0.996820000000    -0.39511    
O125     O      0.222870000000     0.950070000000     0.989550000000    -0.393462   
O126     O      0.219510000000     0.543550000000     0.496000000000    -0.394415   
O127     O      0.222190000000     0.000740000000     0.447020000000    -0.384117   
O128     O      0.220210000000     0.993180000000     0.040430000000    -0.387531   
O129     O      0.996220000000     0.718210000000     0.040620000000    -0.39136    
O130     O      0.998880000000     0.723080000000     0.446940000000    -0.397143   
O131     O      0.043510000000     0.721970000000     0.494230000000    -0.394205   
O132     O      0.449940000000     0.719400000000     0.991470000000    -0.393141   
O133     O      0.448260000000     0.770750000000     0.996410000000    -0.397776   
O134     O      0.041900000000     0.773390000000     0.498590000000    -0.389347   
O135     O      0.494980000000     0.774510000000     0.449840000000    -0.390877   
O136     O      0.492940000000     0.769690000000     0.043330000000    -0.395529   
O137     O      0.245840000000     0.701670000000     0.022210000000    -0.390963   
O138     O      0.249430000000     0.795160000000     0.019060000000    -0.394496   
O139     O      0.199800000000     0.751180000000     0.021690000000    -0.388674   
O140     O      0.293540000000     0.747470000000     0.019380000000    -0.393941   
O141     O      0.291900000000     0.743320000000     0.467930000000    -0.391903   
O142     O      0.198590000000     0.747720000000     0.470210000000    -0.397689   
O143     O      0.246500000000     0.793460000000     0.467570000000    -0.392146   
O144     O      0.242130000000     0.699750000000     0.470700000000    -0.393614   
O145     O      0.489730000000     0.543020000000     0.721380000000    -0.39162    
O146     O      0.500630000000     0.949600000000     0.719970000000    -0.390671   
O147     O      0.448680000000     0.991030000000     0.721000000000    -0.392984   
O148     O      0.041760000000     0.501690000000     0.720110000000    -0.389832   
O149     O      0.042630000000     0.492580000000     0.770830000000    -0.390637   
O150     O      0.449130000000     0.998980000000     0.771930000000    -0.3955     
O151     O      0.992760000000     0.949120000000     0.770900000000    -0.394052   
O152     O      0.998940000000     0.542360000000     0.772100000000    -0.396674   
O153     O      0.018410000000     0.698440000000     0.749080000000    -0.393297   
O154     O      0.021300000000     0.791780000000     0.740760000000    -0.388328   
O155     O      0.020760000000     0.747810000000     0.791520000000    -0.38982    
O156     O      0.018890000000     0.740460000000     0.698020000000    -0.389878   
O157     O      0.467880000000     0.747820000000     0.698800000000    -0.395362   
O158     O      0.469180000000     0.747620000000     0.792470000000    -0.394462   
O159     O      0.470090000000     0.793590000000     0.746730000000    -0.397532   
O160     O      0.467030000000     0.699990000000     0.744800000000    -0.393511   
O161     O      0.292040000000     0.971970000000     0.740390000000    -0.391612   
O162     O      0.198750000000     0.973000000000     0.749160000000    -0.391375   
O163     O      0.240820000000     0.972160000000     0.697950000000    -0.38974    
O164     O      0.250090000000     0.973080000000     0.791490000000    -0.390269   
O165     O      0.241690000000     0.523950000000     0.790850000000    -0.395548   
O166     O      0.249990000000     0.522880000000     0.697750000000    -0.395637   
O167     O      0.199220000000     0.523720000000     0.739890000000    -0.39427    
O168     O      0.292430000000     0.522850000000     0.748830000000    -0.394325   
O169     O      0.271310000000     0.500130000000     0.541810000000    -0.397666   
O170     O      0.273640000000     0.497100000000     0.948240000000    -0.393314   
O171     O      0.271060000000     0.545360000000     0.995230000000    -0.395222   
O172     O      0.273910000000     0.951710000000     0.496810000000    -0.394309   
O173     O      0.222870000000     0.950070000000     0.489550000000    -0.393146   
O174     O      0.219510000000     0.543550000000     0.996000000000    -0.394762   
O175     O      0.222190000000     0.000740000000     0.947020000000    -0.38376    
O176     O      0.220210000000     0.993180000000     0.540430000000    -0.389917   
O177     O      0.996220000000     0.718210000000     0.540620000000    -0.393759   
O178     O      0.998880000000     0.723080000000     0.946940000000    -0.396777   
O179     O      0.043510000000     0.721970000000     0.994230000000    -0.394532   
O180     O      0.449940000000     0.719400000000     0.491470000000    -0.392823   
O181     O      0.448260000000     0.770750000000     0.496410000000    -0.396992   
O182     O      0.041900000000     0.773390000000     0.998590000000    -0.390031   
O183     O      0.494980000000     0.774510000000     0.949840000000    -0.390647   
O184     O      0.492940000000     0.769690000000     0.543330000000    -0.397884   
O185     O      0.245840000000     0.701670000000     0.522210000000    -0.393927   
O186     O      0.249430000000     0.795160000000     0.519060000000    -0.397299   
O187     O      0.199800000000     0.751180000000     0.521690000000    -0.391617   
O188     O      0.293540000000     0.747470000000     0.519380000000    -0.396769   
O189     O      0.291900000000     0.743320000000     0.967930000000    -0.391084   
O190     O      0.198590000000     0.747720000000     0.970210000000    -0.396785   
O191     O      0.246500000000     0.793460000000     0.967570000000    -0.391366   
O192     O      0.242130000000     0.699750000000     0.970700000000    -0.39269    
O193     O      0.989730000000     0.043020000000     0.221380000000    -0.385964   
O194     O      0.000630000000     0.449600000000     0.219970000000    -0.384616   
O195     O      0.948680000000     0.491030000000     0.221000000000    -0.392608   
O196     O      0.541760000000     0.001690000000     0.220110000000    -0.38158    
O197     O      0.542630000000     0.992580000000     0.270830000000    -0.39249    
O198     O      0.949130000000     0.498980000000     0.271930000000    -0.393282   
O199     O      0.492760000000     0.449120000000     0.270900000000    -0.395646   
O200     O      0.498940000000     0.042360000000     0.272100000000    -0.390329   
O201     O      0.518410000000     0.198440000000     0.249080000000    -0.39706    
O202     O      0.521300000000     0.291780000000     0.240760000000    -0.392284   
O203     O      0.520760000000     0.247810000000     0.291520000000    -0.393696   
O204     O      0.518890000000     0.240460000000     0.198020000000    -0.393712   
O205     O      0.967880000000     0.247830000000     0.198800000000    -0.394154   
O206     O      0.969180000000     0.247620000000     0.292470000000    -0.393295   
O207     O      0.970090000000     0.293590000000     0.246730000000    -0.396292   
O208     O      0.967030000000     0.199990000000     0.244800000000    -0.392362   
O209     O      0.792040000000     0.471970000000     0.240390000000    -0.39347    
O210     O      0.698750000000     0.473000000000     0.249160000000    -0.393215   
O211     O      0.740820000000     0.472160000000     0.197950000000    -0.391555   
O212     O      0.750090000000     0.473080000000     0.291490000000    -0.392015   
O213     O      0.741690000000     0.023950000000     0.290850000000    -0.389232   
O214     O      0.749990000000     0.022880000000     0.197750000000    -0.389213   
O215     O      0.699220000000     0.023720000000     0.239890000000    -0.387887   
O216     O      0.792430000000     0.022850000000     0.248840000000    -0.387913   
O217     O      0.771310000000     0.000130000000     0.041800000000    -0.38364    
O218     O      0.773640000000     0.997100000000     0.448240000000    -0.390192   
O219     O      0.771060000000     0.045360000000     0.495230000000    -0.389197   
O220     O      0.773910000000     0.451710000000     0.996820000000    -0.396269   
O221     O      0.722870000000     0.450070000000     0.989550000000    -0.394614   
O222     O      0.719510000000     0.043550000000     0.496000000000    -0.389118   
O223     O      0.722190000000     0.500740000000     0.447020000000    -0.397409   
O224     O      0.720210000000     0.493180000000     0.040430000000    -0.38979    
O225     O      0.496220000000     0.218210000000     0.040620000000    -0.390282   
O226     O      0.498880000000     0.223080000000     0.446940000000    -0.396016   
O227     O      0.543510000000     0.221970000000     0.494230000000    -0.397387   
O228     O      0.949940000000     0.219400000000     0.991470000000    -0.392533   
O229     O      0.948270000000     0.270750000000     0.996410000000    -0.397234   
O230     O      0.541910000000     0.273390000000     0.498590000000    -0.39239    
O231     O      0.994980000000     0.274510000000     0.449840000000    -0.391302   
O232     O      0.992940000000     0.269690000000     0.043330000000    -0.39598    
O233     O      0.745840000000     0.201670000000     0.022210000000    -0.390933   
O234     O      0.749430000000     0.295160000000     0.019060000000    -0.3945     
O235     O      0.699800000000     0.251180000000     0.021690000000    -0.388606   
O236     O      0.793540000000     0.247470000000     0.019380000000    -0.393926   
O237     O      0.791900000000     0.243320000000     0.467930000000    -0.391888   
O238     O      0.698590000000     0.247720000000     0.470210000000    -0.397635   
O239     O      0.746500000000     0.293460000000     0.467570000000    -0.392142   
O240     O      0.742130000000     0.199750000000     0.470700000000    -0.393588   
O241     O      0.989730000000     0.043020000000     0.721380000000    -0.386028   
O242     O      0.000630000000     0.449600000000     0.719970000000    -0.384673   
O243     O      0.948680000000     0.491030000000     0.721000000000    -0.392671   
O244     O      0.541760000000     0.001690000000     0.720110000000    -0.381732   
O245     O      0.542630000000     0.992580000000     0.770830000000    -0.392423   
O246     O      0.949130000000     0.498980000000     0.771930000000    -0.393313   
O247     O      0.492760000000     0.449120000000     0.770900000000    -0.395681   
O248     O      0.498940000000     0.042360000000     0.772100000000    -0.390352   
O249     O      0.518410000000     0.198440000000     0.749080000000    -0.397074   
O250     O      0.521300000000     0.291780000000     0.740760000000    -0.392304   
O251     O      0.520760000000     0.247810000000     0.791520000000    -0.3937     
O252     O      0.518890000000     0.240460000000     0.698020000000    -0.39375    
O253     O      0.967880000000     0.247830000000     0.698800000000    -0.394176   
O254     O      0.969180000000     0.247620000000     0.792470000000    -0.393295   
O255     O      0.970090000000     0.293590000000     0.746730000000    -0.396295   
O256     O      0.967030000000     0.199990000000     0.744800000000    -0.392358   
O257     O      0.792040000000     0.471970000000     0.740390000000    -0.393489   
O258     O      0.698750000000     0.473000000000     0.749160000000    -0.393231   
O259     O      0.740820000000     0.472160000000     0.697950000000    -0.391578   
O260     O      0.750090000000     0.473080000000     0.791490000000    -0.392025   
O261     O      0.741690000000     0.023950000000     0.790850000000    -0.389238   
O262     O      0.749990000000     0.022880000000     0.697750000000    -0.389222   
O263     O      0.699220000000     0.023720000000     0.739890000000    -0.387885   
O264     O      0.792430000000     0.022850000000     0.748830000000    -0.38794    
O265     O      0.771310000000     0.000130000000     0.541810000000    -0.385791   
O266     O      0.773640000000     0.997100000000     0.948240000000    -0.389917   
O267     O      0.771060000000     0.045360000000     0.995230000000    -0.389927   
O268     O      0.773910000000     0.451710000000     0.496810000000    -0.39547    
O269     O      0.722870000000     0.450070000000     0.489550000000    -0.394299   
O270     O      0.719510000000     0.043550000000     0.996000000000    -0.389474   
O271     O      0.722190000000     0.500740000000     0.947020000000    -0.397035   
O272     O      0.720210000000     0.493180000000     0.540430000000    -0.39219    
O273     O      0.496220000000     0.218210000000     0.540620000000    -0.392672   
O274     O      0.498880000000     0.223080000000     0.946940000000    -0.395651   
O275     O      0.543510000000     0.221970000000     0.994230000000    -0.397711   
O276     O      0.949940000000     0.219400000000     0.491470000000    -0.392215   
O277     O      0.948270000000     0.270750000000     0.496410000000    -0.396451   
O278     O      0.541910000000     0.273390000000     0.998590000000    -0.393073   
O279     O      0.994980000000     0.274510000000     0.949840000000    -0.391072   
O280     O      0.992940000000     0.269690000000     0.543330000000    -0.398331   
O281     O      0.745840000000     0.201670000000     0.522210000000    -0.393894   
O282     O      0.749430000000     0.295160000000     0.519060000000    -0.397304   
O283     O      0.699800000000     0.251180000000     0.521690000000    -0.391549   
O284     O      0.793540000000     0.247470000000     0.519380000000    -0.396751   
O285     O      0.791900000000     0.243320000000     0.967930000000    -0.39107    
O286     O      0.698590000000     0.247720000000     0.970210000000    -0.396732   
O287     O      0.746500000000     0.293460000000     0.967570000000    -0.391362   
O288     O      0.742130000000     0.199750000000     0.970700000000    -0.392664   
O289     O      0.989730000000     0.543020000000     0.221380000000    -0.391414   
O290     O      0.000630000000     0.949600000000     0.219970000000    -0.383741   
O291     O      0.948680000000     0.991030000000     0.221000000000    -0.392372   
O292     O      0.541760000000     0.501690000000     0.220110000000    -0.392972   
O293     O      0.542630000000     0.492580000000     0.270830000000    -0.39386    
O294     O      0.949130000000     0.998980000000     0.271930000000    -0.395021   
O295     O      0.492760000000     0.949120000000     0.270900000000    -0.394893   
O296     O      0.498940000000     0.542360000000     0.272100000000    -0.395582   
O297     O      0.518410000000     0.698440000000     0.249080000000    -0.397088   
O298     O      0.521300000000     0.791780000000     0.240760000000    -0.392316   
O299     O      0.520760000000     0.747810000000     0.291520000000    -0.393707   
O300     O      0.518890000000     0.740460000000     0.198020000000    -0.39376    
O301     O      0.967880000000     0.747820000000     0.198800000000    -0.394212   
O302     O      0.969180000000     0.747620000000     0.292470000000    -0.393318   
O303     O      0.970090000000     0.793590000000     0.246730000000    -0.396303   
O304     O      0.967030000000     0.699990000000     0.244800000000    -0.392425   
O305     O      0.792040000000     0.971970000000     0.240390000000    -0.391602   
O306     O      0.698750000000     0.973000000000     0.249160000000    -0.391384   
O307     O      0.740820000000     0.972160000000     0.197950000000    -0.389741   
O308     O      0.750090000000     0.973080000000     0.291490000000    -0.390281   
O309     O      0.741690000000     0.523950000000     0.290850000000    -0.395554   
O310     O      0.749990000000     0.522880000000     0.197750000000    -0.395627   
O311     O      0.699220000000     0.523720000000     0.239890000000    -0.394254   
O312     O      0.792430000000     0.522850000000     0.248840000000    -0.39429    
O313     O      0.771310000000     0.500130000000     0.041800000000    -0.395501   
O314     O      0.773640000000     0.497100000000     0.448240000000    -0.393645   
O315     O      0.771060000000     0.545360000000     0.495230000000    -0.394542   
O316     O      0.773910000000     0.951710000000     0.996820000000    -0.395149   
O317     O      0.722870000000     0.950070000000     0.989550000000    -0.393565   
O318     O      0.719510000000     0.543550000000     0.496000000000    -0.394495   
O319     O      0.722190000000     0.000740000000     0.447020000000    -0.384173   
O320     O      0.720210000000     0.993180000000     0.040430000000    -0.387627   
O321     O      0.496220000000     0.718210000000     0.040620000000    -0.390442   
O322     O      0.498880000000     0.723080000000     0.446940000000    -0.396131   
O323     O      0.543510000000     0.721970000000     0.494230000000    -0.397385   
O324     O      0.949940000000     0.719400000000     0.991470000000    -0.392677   
O325     O      0.948270000000     0.770750000000     0.996410000000    -0.397303   
O326     O      0.541910000000     0.773390000000     0.498590000000    -0.392594   
O327     O      0.994980000000     0.774510000000     0.449840000000    -0.391397   
O328     O      0.992940000000     0.769690000000     0.043330000000    -0.396047   
O329     O      0.745840000000     0.701670000000     0.022210000000    -0.390978   
O330     O      0.749430000000     0.795160000000     0.019060000000    -0.394514   
O331     O      0.699800000000     0.751180000000     0.021690000000    -0.388632   
O332     O      0.793540000000     0.747470000000     0.019380000000    -0.393943   
O333     O      0.791900000000     0.743320000000     0.467930000000    -0.3919     
O334     O      0.698590000000     0.747720000000     0.470210000000    -0.397648   
O335     O      0.746500000000     0.793460000000     0.467570000000    -0.392169   
O336     O      0.742130000000     0.699750000000     0.470700000000    -0.393611   
O337     O      0.989730000000     0.543020000000     0.721380000000    -0.391485   
O338     O      0.000630000000     0.949600000000     0.719970000000    -0.383797   
O339     O      0.948680000000     0.991030000000     0.721000000000    -0.392435   
O340     O      0.541760000000     0.501690000000     0.720110000000    -0.393143   
O341     O      0.542630000000     0.492580000000     0.770830000000    -0.393795   
O342     O      0.949130000000     0.998980000000     0.771930000000    -0.395053   
O343     O      0.492760000000     0.949120000000     0.770900000000    -0.394927   
O344     O      0.498940000000     0.542360000000     0.772100000000    -0.395609   
O345     O      0.518410000000     0.698440000000     0.749080000000    -0.397102   
O346     O      0.521300000000     0.791780000000     0.740760000000    -0.392336   
O347     O      0.520760000000     0.747810000000     0.791520000000    -0.393711   
O348     O      0.518890000000     0.740460000000     0.698020000000    -0.393798   
O349     O      0.967880000000     0.747820000000     0.698800000000    -0.394235   
O350     O      0.969180000000     0.747620000000     0.792470000000    -0.393318   
O351     O      0.970090000000     0.793590000000     0.746730000000    -0.396307   
O352     O      0.967030000000     0.699990000000     0.744800000000    -0.392421   
O353     O      0.792040000000     0.971970000000     0.740390000000    -0.391619   
O354     O      0.698750000000     0.973000000000     0.749160000000    -0.391399   
O355     O      0.740820000000     0.972160000000     0.697950000000    -0.389761   
O356     O      0.750090000000     0.973080000000     0.791490000000    -0.390289   
O357     O      0.741690000000     0.523950000000     0.790850000000    -0.395563   
O358     O      0.749990000000     0.522880000000     0.697750000000    -0.395647   
O359     O      0.699220000000     0.523720000000     0.739890000000    -0.394259   
O360     O      0.792430000000     0.522850000000     0.748830000000    -0.394325   
O361     O      0.771310000000     0.500130000000     0.541810000000    -0.397699   
O362     O      0.773640000000     0.497100000000     0.948240000000    -0.393364   
O363     O      0.771060000000     0.545360000000     0.995230000000    -0.395265   
O364     O      0.773910000000     0.951710000000     0.496810000000    -0.394347   
O365     O      0.722870000000     0.950070000000     0.489550000000    -0.393249   
O366     O      0.719510000000     0.543550000000     0.996000000000    -0.394842   
O367     O      0.722190000000     0.000740000000     0.947020000000    -0.383815   
O368     O      0.720210000000     0.993180000000     0.540430000000    -0.390019   
O369     O      0.496220000000     0.718210000000     0.540620000000    -0.392839   
O370     O      0.498880000000     0.723080000000     0.946940000000    -0.395765   
O371     O      0.543510000000     0.721970000000     0.994230000000    -0.397709   
O372     O      0.949940000000     0.719400000000     0.491470000000    -0.392359   
O373     O      0.948270000000     0.770750000000     0.496410000000    -0.396519   
O374     O      0.541910000000     0.773390000000     0.998590000000    -0.393277   
O375     O      0.994980000000     0.774510000000     0.949840000000    -0.391166   
O376     O      0.992940000000     0.769690000000     0.543330000000    -0.398402   
O377     O      0.745840000000     0.701670000000     0.522210000000    -0.393948   
O378     O      0.749430000000     0.795160000000     0.519060000000    -0.397322   
O379     O      0.699800000000     0.751180000000     0.521690000000    -0.391582   
O380     O      0.793540000000     0.747470000000     0.519380000000    -0.396774   
O381     O      0.791900000000     0.743320000000     0.967930000000    -0.39108    
O382     O      0.698590000000     0.747720000000     0.970210000000    -0.396743   
O383     O      0.746500000000     0.793460000000     0.967570000000    -0.391388   
O384     O      0.742130000000     0.699750000000     0.970700000000    -0.392685   
S1       S      0.336190000000     0.191640000000     0.456030000000    -0.0301597  
S2       S      0.087350000000     0.211180000000     0.444080000000    -0.0365468  
S3       S      0.283840000000     0.406930000000     0.047010000000    -0.0335565  
S4       S      0.187100000000     0.156970000000     0.465930000000    -0.0354174  
S5       S      0.211850000000     0.052950000000     0.404210000000    -0.0325796  
S6       S      0.280180000000     0.051240000000     0.084910000000    -0.0328613  
S7       S      0.442420000000     0.284310000000     0.405530000000    -0.0302198  
S8       S      0.439230000000     0.277760000000     0.085170000000    -0.035977   
S9       S      0.154180000000     0.034900000000     0.191100000000    -0.0269366  
S10      S      0.336190000000     0.032260000000     0.299460000000    -0.0275036  
S11      S      0.462170000000     0.336220000000     0.298750000000    -0.0334066  
S12      S      0.028560000000     0.155650000000     0.301140000000    -0.0336319  
S13      S      0.336190000000     0.191640000000     0.956030000000    -0.0304889  
S14      S      0.087350000000     0.211180000000     0.944080000000    -0.0366589  
S15      S      0.283840000000     0.406930000000     0.547010000000    -0.0343811  
S16      S      0.187100000000     0.156970000000     0.965930000000    -0.0356529  
S17      S      0.211850000000     0.052950000000     0.904210000000    -0.0326715  
S18      S      0.280180000000     0.051240000000     0.584910000000    -0.0337183  
S19      S      0.442420000000     0.284310000000     0.905530000000    -0.030608   
S20      S      0.439230000000     0.277760000000     0.585170000000    -0.0367585  
S21      S      0.154180000000     0.034900000000     0.691100000000    -0.0272153  
S22      S      0.336190000000     0.032260000000     0.799460000000    -0.0276068  
S23      S      0.462170000000     0.336220000000     0.798750000000    -0.0334993  
S24      S      0.028560000000     0.155650000000     0.801140000000    -0.0337109  
S25      S      0.336190000000     0.691640000000     0.456030000000    -0.0305165  
S26      S      0.087350000000     0.711180000000     0.444080000000    -0.0367461  
S27      S      0.283840000000     0.906930000000     0.047010000000    -0.0344344  
S28      S      0.187100000000     0.656970000000     0.465930000000    -0.0357843  
S29      S      0.211850000000     0.552950000000     0.404210000000    -0.0349436  
S30      S      0.280180000000     0.551240000000     0.084910000000    -0.0340654  
S31      S      0.442420000000     0.784310000000     0.405530000000    -0.0305211  
S32      S      0.439230000000     0.777760000000     0.085170000000    -0.0361358  
S33      S      0.154180000000     0.534900000000     0.191100000000    -0.0301635  
S34      S      0.336190000000     0.532260000000     0.299460000000    -0.0310625  
S35      S      0.462170000000     0.836220000000     0.298750000000    -0.0336906  
S36      S      0.028560000000     0.655650000000     0.301140000000    -0.0342342  
S37      S      0.336190000000     0.691640000000     0.956030000000    -0.0308463  
S38      S      0.087350000000     0.711180000000     0.944080000000    -0.0368581  
S39      S      0.283840000000     0.906930000000     0.547010000000    -0.0352622  
S40      S      0.187100000000     0.656970000000     0.965930000000    -0.0360196  
S41      S      0.211850000000     0.552950000000     0.904210000000    -0.0350342  
S42      S      0.280180000000     0.551240000000     0.584910000000    -0.0349293  
S43      S      0.442420000000     0.784310000000     0.905530000000    -0.0309088  
S44      S      0.439230000000     0.777760000000     0.585170000000    -0.0369194  
S45      S      0.154180000000     0.534900000000     0.691100000000    -0.0304509  
S46      S      0.336190000000     0.532260000000     0.799460000000    -0.031167   
S47      S      0.462170000000     0.836220000000     0.798750000000    -0.0337829  
S48      S      0.028560000000     0.655650000000     0.801140000000    -0.0343133  
S49      S      0.836190000000     0.191640000000     0.456030000000    -0.0303078  
S50      S      0.587350000000     0.211180000000     0.444080000000    -0.0375881  
S51      S      0.783840000000     0.406930000000     0.047010000000    -0.0336538  
S52      S      0.687100000000     0.156970000000     0.465930000000    -0.0355798  
S53      S      0.711850000000     0.052950000000     0.404210000000    -0.0326939  
S54      S      0.780180000000     0.051240000000     0.084910000000    -0.0329503  
S55      S      0.942420000000     0.284310000000     0.405530000000    -0.0306918  
S56      S      0.939230000000     0.277760000000     0.085170000000    -0.036214   
S57      S      0.654180000000     0.034900000000     0.191100000000    -0.0273346  
S58      S      0.836190000000     0.032260000000     0.299460000000    -0.0276645  
S59      S      0.962170000000     0.336220000000     0.298750000000    -0.0343215  
S60      S      0.528560000000     0.155650000000     0.301140000000    -0.0354583  
S61      S      0.836190000000     0.191640000000     0.956030000000    -0.0306371  
S62      S      0.587350000000     0.211180000000     0.944080000000    -0.0377003  
S63      S      0.783840000000     0.406930000000     0.547010000000    -0.0344801  
S64      S      0.687100000000     0.156970000000     0.965930000000    -0.0358156  
S65      S      0.711850000000     0.052950000000     0.904210000000    -0.032786   
S66      S      0.780180000000     0.051240000000     0.584910000000    -0.0338092  
S67      S      0.942420000000     0.284310000000     0.905530000000    -0.0310795  
S68      S      0.939230000000     0.277760000000     0.585170000000    -0.0369963  
S69      S      0.654180000000     0.034900000000     0.691100000000    -0.0276154  
S70      S      0.836190000000     0.032260000000     0.799460000000    -0.0277676  
S71      S      0.962170000000     0.336220000000     0.798750000000    -0.0344139  
S72      S      0.528560000000     0.155650000000     0.801140000000    -0.0355392  
S73      S      0.836190000000     0.691640000000     0.456030000000    -0.0306649  
S74      S      0.587350000000     0.711180000000     0.444080000000    -0.0377899  
S75      S      0.783840000000     0.906930000000     0.047010000000    -0.0345318  
S76      S      0.687100000000     0.656970000000     0.465930000000    -0.0359479  
S77      S      0.711850000000     0.552950000000     0.404210000000    -0.0350611  
S78      S      0.780180000000     0.551240000000     0.084910000000    -0.0341554  
S79      S      0.942420000000     0.784310000000     0.405530000000    -0.0309922  
S80      S      0.939230000000     0.777760000000     0.085170000000    -0.0363728  
S81      S      0.654180000000     0.534900000000     0.191100000000    -0.0305688  
S82      S      0.836190000000     0.532260000000     0.299460000000    -0.0312253  
S83      S      0.962170000000     0.836220000000     0.298750000000    -0.0346043  
S84      S      0.528560000000     0.655650000000     0.301140000000    -0.0360683  
S85      S      0.836190000000     0.691640000000     0.956030000000    -0.0309947  
S86      S      0.587350000000     0.711180000000     0.944080000000    -0.037902   
S87      S      0.783840000000     0.906930000000     0.547010000000    -0.0353614  
S88      S      0.687100000000     0.656970000000     0.965930000000    -0.0361837  
S89      S      0.711850000000     0.552950000000     0.904210000000    -0.0351518  
S90      S      0.780180000000     0.551240000000     0.584910000000    -0.0350212  
S91      S      0.942420000000     0.784310000000     0.905530000000    -0.0313794  
S92      S      0.939230000000     0.777760000000     0.585170000000    -0.0371572  
S93      S      0.654180000000     0.534900000000     0.691100000000    -0.0308583  
S94      S      0.836190000000     0.532260000000     0.799460000000    -0.0313297  
S95      S      0.962170000000     0.836220000000     0.798750000000    -0.0346963  
S96      S      0.528560000000     0.655650000000     0.801140000000    -0.0361492  


