data_structure

_audit_creation_method RASPA-1.0
_audit_creation_date 2023-6-5
_audit_author_name 'Poobodin Mano'

_cell_length_a    49.6958
_cell_length_b    49.6435
_cell_length_c    29.7606
_cell_angle_alpha 89.9821
_cell_angle_beta  90.0179
_cell_angle_gamma 119.979
_cell_volume      63598.4

_symmetry_cell_setting          triclinic
_symmetry_space_group_name_Hall 'P 1'
_symmetry_space_group_name_H-M  'P 1'
_symmetry_Int_Tables_number     1

_symmetry_equiv_pos_as_xyz 'x,y,z'

loop_
_atom_site_label
_atom_site_type_symbol
_atom_site_fract_x
_atom_site_fract_y
_atom_site_fract_z
_atom_site_charge
C1       C      0.891200000000     0.694060000000     0.663750000000     0.410568   
C2       C      0.773520000000     0.637630000000     0.607370000000     0.409491   
C3       C      0.814780000000     0.664460000000     0.720700000000     0.409896   
C4       C      0.846920000000     0.665670000000     0.549320000000     0.409904   
C5       C      0.227630000000     0.869440000000     0.818700000000     0.409266   
C6       C      0.108270000000     0.805710000000     0.770040000000     0.404861   
C7       C      0.152450000000     0.823990000000     0.881220000000     0.404983   
C8       C      0.184270000000     0.851360000000     0.708800000000     0.408993   
C9       C      0.435850000000     0.974080000000     0.956060000000     0.404382   
C10      C      0.555320000000     0.030770000000     0.003980000000     0.405161   
C11      C      0.510070000000     0.003700000000     0.893450000000     0.405355   
C12      C      0.481300000000     0.001160000000     0.066760000000     0.405735   
C13      C      0.225510000000     0.364560000000     0.323830000000     0.410155   
C14      C      0.105200000000     0.306020000000     0.281040000000     0.409892   
C15      C      0.151850000000     0.332930000000     0.391600000000     0.405339   
C16      C      0.176600000000     0.337290000000     0.216400000000     0.40861    
C17      C      0.770470000000     0.136860000000     0.117870000000     0.409222   
C18      C      0.887920000000     0.197360000000     0.175200000000     0.405951   
C19      C      0.844760000000     0.181590000000     0.061510000000     0.409661   
C20      C      0.810620000000     0.151280000000     0.232590000000     0.410087   
C21      C      0.556270000000     0.528530000000     0.502290000000     0.4047     
C22      C      0.438730000000     0.469280000000     0.445020000000     0.404525   
C23      C      0.478310000000     0.484520000000     0.558640000000     0.410153   
C24      C      0.517100000000     0.513240000000     0.388890000000     0.410044   
C25      C      0.137040000000     0.365630000000     0.834810000000     0.410563   
C26      C      0.194610000000     0.306050000000     0.776630000000     0.406424   
C27      C      0.179920000000     0.331890000000     0.890080000000     0.4046     
C28      C      0.151020000000     0.340190000000     0.719840000000     0.410042   
C29      C      0.299860000000     0.197430000000     0.658770000000     0.410083   
C30      C      0.359500000000     0.135630000000     0.622620000000     0.411725   
C31      C      0.327420000000     0.153510000000     0.727930000000     0.411812   
C32      C      0.330060000000     0.180460000000     0.554190000000     0.411514   
C33      C      0.029610000000     0.474560000000     0.944410000000     0.405859   
C34      C      0.970740000000     0.532920000000     0.002520000000     0.410616   
C35      C      0.993990000000     0.516720000000     0.887170000000     0.409416   
C36      C      0.005880000000     0.491560000000     0.058160000000     0.403657   
C37      C      0.634200000000     0.866030000000     0.324800000000     0.406155   
C38      C      0.691900000000     0.804360000000     0.276210000000     0.410018   
C39      C      0.666320000000     0.821430000000     0.385330000000     0.409758   
C40      C      0.660170000000     0.848610000000     0.213430000000     0.406006   
C41      C      0.800050000000     0.698510000000     0.158470000000     0.405419   
C42      C      0.861710000000     0.640700000000     0.110300000000     0.405704   
C43      C      0.842980000000     0.666030000000     0.221050000000     0.405615   
C44      C      0.819010000000     0.672930000000     0.047990000000     0.405811   
C45      C      0.529540000000     0.972560000000     0.453650000000     0.409799   
C46      C      0.468950000000     0.030330000000     0.506930000000     0.405771   
C47      C      0.485840000000     0.006920000000     0.394340000000     0.410412   
C48      C      0.512220000000     0.996170000000     0.565300000000     0.408131   
C49      C      0.361180000000     0.225490000000     0.115390000000     0.40577    
C50      C      0.301970000000     0.106660000000     0.167270000000     0.405674   
C51      C      0.326300000000     0.149390000000     0.055450000000     0.407638   
C52      C      0.337140000000     0.182910000000     0.227400000000     0.407813   
C53      C      0.468020000000     0.438290000000     0.992650000000     0.41034    
C54      C      0.532680000000     0.559520000000     0.954480000000     0.410009   
C55      C      0.511810000000     0.511490000000     0.061070000000     0.404697   
C56      C      0.488560000000     0.486420000000     0.886410000000     0.40483    
C57      C      0.190730000000     0.887910000000     0.266720000000     0.410207   
C58      C      0.130180000000     0.769630000000     0.320780000000     0.409687   
C59      C      0.147290000000     0.811300000000     0.209270000000     0.407304   
C60      C      0.173470000000     0.846130000000     0.380940000000     0.404899   
C61      C      0.028400000000     0.558060000000     0.449070000000     0.40565    
C62      C      0.973700000000     0.437920000000     0.494020000000     0.410047   
C63      C      0.999710000000     0.482960000000     0.386060000000     0.409434   
C64      C      0.001560000000     0.512330000000     0.559070000000     0.405602   
C65      C      0.864930000000     0.225810000000     0.621780000000     0.405654   
C66      C      0.800440000000     0.106710000000     0.671380000000     0.405435   
C67      C      0.819670000000     0.150910000000     0.560260000000     0.404892   
C68      C      0.845470000000     0.181770000000     0.733130000000     0.405268   
C69      C      0.635720000000     0.769610000000     0.823310000000     0.405014   
C70      C      0.689590000000     0.888960000000     0.775190000000     0.410978   
C71      C      0.665000000000     0.842320000000     0.887220000000     0.411462   
C72      C      0.660240000000     0.815390000000     0.712900000000     0.405247   
C73      C      0.688620000000     0.930460000000     0.733030000000     0.181661   
C74      C      0.733920000000     0.938870000000     0.772440000000     0.07589    
C75      C      0.703830000000     0.962190000000     0.721370000000    -0.132799   
C76      C      0.737210000000     0.032720000000     0.714420000000    -0.0823356  
C77      C      0.749630000000     0.970070000000     0.759880000000    -0.0986006  
C78      C      0.751850000000     0.014900000000     0.717670000000     0.0261843  
C79      C      0.734710000000     0.982140000000     0.733900000000     0.0538898  
C80      C      0.753650000000     0.063250000000     0.698360000000     0.0680713  
C81      C      0.798750000000     0.059050000000     0.688650000000     0.0683106  
C82      C      0.782970000000     0.028460000000     0.704280000000    -0.082492   
C83      C      0.975860000000     0.391820000000     0.516640000000     0.181366   
C84      C      0.927870000000     0.391360000000     0.513440000000     0.073841   
C85      C      0.961180000000     0.363380000000     0.540000000000    -0.132382   
C86      C      0.924910000000     0.295900000000     0.565910000000    -0.0815303  
C87      C      0.912410000000     0.361840000000     0.532790000000    -0.0976405  
C88      C      0.912820000000     0.316070000000     0.569180000000     0.0260053  
C89      C      0.929050000000     0.347660000000     0.547760000000     0.0538483  
C90      C      0.909210000000     0.266370000000     0.585280000000     0.068784   
C91      C      0.868950000000     0.275160000000     0.609850000000     0.0686915  
C92      C      0.884650000000     0.305350000000     0.592410000000    -0.0817304  
C93      C      0.083820000000     0.719100000000     0.329220000000     0.181913   
C94      C      0.132010000000     0.730150000000     0.361890000000     0.0759101  
C95      C      0.069220000000     0.689850000000     0.350570000000    -0.132242   
C96      C      0.039740000000     0.633420000000     0.411230000000    -0.0812742  
C97      C      0.117990000000     0.701300000000     0.383140000000    -0.0982259  
C98      C      0.071170000000     0.648900000000     0.398590000000     0.0259104  
C99      C      0.086190000000     0.680560000000     0.377750000000     0.0542231  
C100     C      0.025820000000     0.603170000000     0.428440000000     0.0684973  
C101     C      0.073580000000     0.603580000000     0.423530000000     0.0684859  
C102     C      0.088010000000     0.633440000000     0.405200000000    -0.0821356  
C103     C      0.539010000000     0.611180000000     0.950590000000     0.182473   
C104     C      0.575120000000     0.599660000000     0.915480000000     0.0758006  
C105     C      0.553070000000     0.640200000000     0.928780000000    -0.133428   
C106     C      0.575660000000     0.692490000000     0.861260000000    -0.0825754  
C107     C      0.589910000000     0.628680000000     0.894600000000    -0.0984171  
C108     C      0.593570000000     0.679990000000     0.877510000000     0.0257187  
C109     C      0.578530000000     0.649110000000     0.900210000000     0.0544399  
C110     C      0.590100000000     0.722140000000     0.842190000000     0.0681343  
C111     C      0.639610000000     0.727070000000     0.853040000000     0.0673258  
C112     C      0.625920000000     0.697540000000     0.872590000000    -0.082373   
C113     C      0.231650000000     0.928890000000     0.222400000000     0.182466   
C114     C      0.195570000000     0.937620000000     0.263440000000     0.0756714  
C115     C      0.248490000000     0.960660000000     0.211350000000    -0.133324   
C116     C      0.287650000000     0.030830000000     0.207900000000    -0.0821361  
C117     C      0.211410000000     0.969000000000     0.251550000000    -0.0982556  
C118     C      0.255160000000     0.014220000000     0.211210000000     0.0263436  
C119     C      0.238380000000     0.981000000000     0.225520000000     0.0539974  
C120     C      0.302920000000     0.061630000000     0.192920000000     0.0683408  
C121     C      0.254820000000     0.060290000000     0.185000000000     0.0684784  
C122     C      0.238810000000     0.029420000000     0.199530000000    -0.0824113  
C123     C      0.461380000000     0.386450000000     0.994050000000     0.182476   
C124     C      0.425910000000     0.397810000000     0.031600000000     0.0760776  
C125     C      0.447090000000     0.356940000000     0.014460000000    -0.133139   
C126     C      0.423100000000     0.302020000000     0.077960000000    -0.0819957  
C127     C      0.410950000000     0.368370000000     0.051190000000    -0.0982791  
C128     C      0.406030000000     0.316040000000     0.063980000000     0.0258689  
C129     C      0.421770000000     0.347650000000     0.043420000000     0.0546073  
C130     C      0.407820000000     0.271910000000     0.095630000000     0.0681833  
C131     C      0.359190000000     0.269390000000     0.087300000000     0.0684987  
C132     C      0.373680000000     0.299320000000     0.069170000000    -0.0820653  
C133     C      0.646520000000     0.787170000000     0.450390000000     0.181445   
C134     C      0.689130000000     0.838810000000     0.456860000000     0.0743684  
C135     C      0.643990000000     0.785140000000     0.497520000000    -0.134875   
C136     C      0.635270000000     0.802480000000     0.595200000000    -0.0830169  
C137     C      0.688300000000     0.836440000000     0.503500000000    -0.0999911  
C138     C      0.662610000000     0.808100000000     0.573720000000     0.0250961  
C139     C      0.664910000000     0.809880000000     0.524230000000     0.0547229  
C140     C      0.634550000000     0.804190000000     0.642000000000     0.0671181  
C141     C      0.686560000000     0.814600000000     0.646560000000     0.0678291  
C142     C      0.688270000000     0.813740000000     0.599840000000    -0.0833727  
C143     C      0.685480000000     0.843690000000     0.962130000000     0.182018   
C144     C      0.643800000000     0.853710000000     0.950660000000     0.0750663  
C145     C      0.686350000000     0.851420000000     0.007710000000    -0.134492   
C146     C      0.687390000000     0.879560000000     0.100600000000    -0.0831563  
C147     C      0.642740000000     0.858930000000     0.996530000000    -0.099997   
C148     C      0.661590000000     0.859540000000     0.074650000000     0.0253714  
C149     C      0.664310000000     0.858010000000     0.025400000000     0.0551854  
C150     C      0.685910000000     0.876830000000     0.147360000000     0.0682982  
C151     C      0.633780000000     0.835480000000     0.143110000000     0.0684314  
C152     C      0.634240000000     0.838060000000     0.096370000000    -0.0828095  
C153     C      0.737310000000     0.798200000000     0.274640000000     0.181787   
C154     C      0.690870000000     0.762870000000     0.236120000000     0.0751225  
C155     C      0.752740000000     0.784110000000     0.254360000000    -0.13352    
C156     C      0.784130000000     0.760310000000     0.191750000000    -0.0824733  
C157     C      0.705540000000     0.748000000000     0.216820000000    -0.0986361  
C158     C      0.753050000000     0.743110000000     0.205470000000     0.025604   
C159     C      0.736980000000     0.758840000000     0.225230000000     0.0541899  
C160     C      0.799370000000     0.745080000000     0.175500000000     0.0680084  
C161     C      0.753640000000     0.696200000000     0.184640000000     0.0682549  
C162     C      0.737760000000     0.710670000000     0.201290000000    -0.0822538  
C163     C      0.576160000000     0.968980000000     0.445390000000     0.181869   
C164     C      0.528010000000     0.931050000000     0.413490000000     0.075921   
C165     C      0.591040000000     0.954640000000     0.424120000000    -0.132866   
C166     C      0.621010000000     0.928750000000     0.362900000000    -0.0817887  
C167     C      0.542310000000     0.916460000000     0.392350000000    -0.0984154  
C168     C      0.589740000000     0.912110000000     0.376210000000     0.0258048  
C169     C      0.574250000000     0.928170000000     0.397270000000     0.0542297  
C170     C      0.635490000000     0.913050000000     0.345500000000     0.068408   
C171     C      0.588550000000     0.864940000000     0.351490000000     0.068552   
C172     C      0.573580000000     0.879750000000     0.370040000000    -0.0822239  
C173     C      0.965510000000     0.505300000000     0.816830000000     0.182224   
C174     C      0.019430000000     0.542490000000     0.820270000000     0.0751703  
C175     C      0.967230000000     0.505510000000     0.769610000000    -0.133009   
C176     C      0.973810000000     0.520400000000     0.669690000000    -0.0819459  
C177     C      0.021340000000     0.543950000000     0.773530000000    -0.0986283  
C178     C      0.997850000000     0.523530000000     0.697760000000     0.0257899  
C179     C      0.995390000000     0.524470000000     0.747550000000     0.0544344  
C180     C      0.975770000000     0.517490000000     0.623260000000     0.0681319  
C181     C      0.025210000000     0.521780000000     0.631360000000     0.0685013  
C182     C      0.023960000000     0.524660000000     0.677890000000    -0.0818492  
C183     C      0.973020000000     0.463810000000     0.315060000000     0.182406   
C184     C      0.027890000000     0.486350000000     0.320280000000     0.0748262  
C185     C      0.975250000000     0.464970000000     0.267960000000    -0.13353    
C186     C      0.983620000000     0.455850000000     0.169630000000    -0.0827168  
C187     C      0.030450000000     0.486570000000     0.273550000000    -0.0986671  
C188     C      0.006480000000     0.479010000000     0.196840000000     0.0253482  
C189     C      0.004080000000     0.476700000000     0.246730000000     0.0543326  
C190     C      0.984410000000     0.459930000000     0.123150000000     0.0666092  
C191     C      0.030920000000     0.508470000000     0.129280000000     0.0674663  
C192     C      0.030740000000     0.505210000000     0.175960000000    -0.0819921  
C193     C      0.929550000000     0.532130000000     0.046850000000     0.182024   
C194     C      0.967460000000     0.578400000000     0.010430000000     0.0760771  
C195     C      0.913630000000     0.547520000000     0.060380000000    -0.133372   
C196     C      0.875910000000     0.579250000000     0.069730000000    -0.0823483  
C197     C      0.952210000000     0.594160000000     0.024120000000    -0.0984144  
C198     C      0.908320000000     0.595240000000     0.064960000000     0.0257367  
C199     C      0.924800000000     0.578750000000     0.049210000000     0.0543167  
C200     C      0.860840000000     0.594680000000     0.085700000000     0.0683303  
C201     C      0.908830000000     0.641830000000     0.091040000000     0.0683222  
C202     C      0.924740000000     0.626950000000     0.076070000000    -0.0819751  
C203     C      0.297570000000     0.128540000000     0.795340000000     0.181493   
C204     C      0.352350000000     0.162770000000     0.798280000000     0.0751098  
C205     C      0.297680000000     0.122360000000     0.841380000000    -0.134021   
C206     C      0.299080000000     0.137530000000     0.939250000000    -0.0825678  
C207     C      0.352460000000     0.158440000000     0.844510000000    -0.0985671  
C208     C      0.323640000000     0.137230000000     0.916610000000     0.0258791  
C209     C      0.324860000000     0.138360000000     0.866730000000     0.0546398  
C210     C      0.299750000000     0.140260000000     0.985830000000     0.068961   
C211     C      0.347910000000     0.141240000000     0.988780000000     0.068353   
C212     C      0.347920000000     0.138400000000     0.942060000000    -0.0825688  
C213     C      0.303810000000     0.173820000000     0.483120000000     0.183076   
C214     C      0.358610000000     0.206610000000     0.489430000000     0.0761681  
C215     C      0.306360000000     0.176020000000     0.436160000000    -0.134168   
C216     C      0.315220000000     0.195920000000     0.339130000000    -0.0828111  
C217     C      0.361460000000     0.210110000000     0.442900000000    -0.0992998  
C218     C      0.337980000000     0.195130000000     0.365940000000     0.0260731  
C219     C      0.335290000000     0.194000000000     0.415640000000     0.0552676  
C220     C      0.315940000000     0.192980000000     0.292630000000     0.0689535  
C221     C      0.362320000000     0.190620000000     0.298170000000     0.0689704  
C222     C      0.362200000000     0.193320000000     0.344830000000    -0.0823078  
C223     C      0.363100000000     0.088810000000     0.617970000000     0.183144   
C224     C      0.403050000000     0.137110000000     0.589160000000     0.0768802  
C225     C      0.378280000000     0.073830000000     0.599590000000    -0.132809   
C226     C      0.406000000000     0.043850000000     0.542150000000    -0.08202    
C227     C      0.418430000000     0.122720000000     0.570830000000    -0.0985712  
C228     C      0.422540000000     0.074910000000     0.556550000000     0.0259748  
C229     C      0.406080000000     0.090630000000     0.575530000000     0.0546387  
C230     C      0.421860000000     0.029280000000     0.525770000000     0.0683736  
C231     C      0.470070000000     0.075690000000     0.535210000000     0.0684691  
C232     C      0.455040000000     0.090720000000     0.552890000000    -0.0822435  
C233     C      0.138310000000     0.407580000000     0.877820000000     0.181853   
C234     C      0.091670000000     0.368930000000     0.843130000000     0.0761358  
C235     C      0.123080000000     0.423720000000     0.891030000000    -0.133359   
C236     C      0.090980000000     0.461200000000     0.900980000000    -0.0823059  
C237     C      0.076070000000     0.384420000000     0.856470000000    -0.0981601  
C238     C      0.075250000000     0.428710000000     0.896620000000     0.0258474  
C239     C      0.091720000000     0.412270000000     0.880630000000     0.0542085  
C240     C      0.075510000000     0.476100000000     0.917590000000     0.0682292  
C241     C      0.028840000000     0.427780000000     0.924180000000     0.0687786  
C242     C      0.043760000000     0.412070000000     0.908650000000    -0.0820214  
C243     C      0.254140000000     0.203330000000     0.659350000000     0.180252   
C244     C      0.300760000000     0.239470000000     0.696760000000     0.0757019  
C245     C      0.238840000000     0.217890000000     0.678690000000    -0.133287   
C246     C      0.208290000000     0.243270000000     0.740690000000    -0.0825607  
C247     C      0.286250000000     0.254700000000     0.715100000000    -0.0988605  
C248     C      0.239130000000     0.260020000000     0.725810000000     0.0258436  
C249     C      0.254840000000     0.243780000000     0.706710000000     0.0542987  
C250     C      0.193810000000     0.258990000000     0.757880000000     0.0682022  
C251     C      0.239720000000     0.307470000000     0.746730000000     0.0688122  
C252     C      0.254810000000     0.292520000000     0.729090000000    -0.0824206  
C253     C      0.459940000000     0.494080000000     0.629040000000     0.182865   
C254     C      0.478670000000     0.458440000000     0.624840000000     0.0757649  
C255     C      0.461250000000     0.493460000000     0.676210000000    -0.133472   
C256     C      0.452870000000     0.477510000000     0.775570000000    -0.0823641  
C257     C      0.479010000000     0.456590000000     0.671550000000    -0.098949   
C258     C      0.474620000000     0.475780000000     0.747600000000     0.0256396  
C259     C      0.471410000000     0.475120000000     0.697860000000     0.0547508  
C260     C      0.457530000000     0.480350000000     0.822000000000     0.0679679  
C261     C      0.504160000000     0.478720000000     0.814090000000     0.0675053  
C262     C      0.500260000000     0.475960000000     0.767530000000    -0.0821951  
C263     C      0.537160000000     0.504310000000     0.319660000000     0.182889   
C264     C      0.517960000000     0.539600000000     0.322310000000     0.0753061  
C265     C      0.536890000000     0.505140000000     0.272450000000    -0.13342    
C266     C      0.546450000000     0.520600000000     0.172870000000    -0.0821138  
C267     C      0.518740000000     0.541750000000     0.275570000000    -0.0988437  
C268     C      0.524540000000     0.522700000000     0.200060000000     0.0256061  
C269     C      0.527040000000     0.523440000000     0.249940000000     0.0544996  
C270     C      0.542240000000     0.517540000000     0.126320000000     0.0677804  
C271     C      0.495820000000     0.519700000000     0.132680000000     0.0675522  
C272     C      0.499250000000     0.522660000000     0.179240000000    -0.0824001  
C273     C      0.842270000000     0.207230000000     0.992850000000     0.180225   
C274     C      0.861000000000     0.171430000000     0.992080000000     0.0732438  
C275     C      0.848700000000     0.212450000000     0.946650000000    -0.132948   
C276     C      0.832820000000     0.195300000000     0.849980000000    -0.0824741  
C277     C      0.865250000000     0.174650000000     0.945620000000    -0.0978432  
C278     C      0.857330000000     0.194540000000     0.872090000000     0.0257027  
C279     C      0.858440000000     0.194850000000     0.922150000000     0.0538986  
C280     C      0.829930000000     0.192070000000     0.803490000000     0.0686346  
C281     C      0.875370000000     0.187990000000     0.799290000000     0.0677852  
C282     C      0.879030000000     0.191270000000     0.846030000000    -0.0819535  
C283     C      0.791350000000     0.158960000000     0.303450000000     0.182685   
C284     C      0.811730000000     0.124750000000     0.297920000000     0.0755382  
C285     C      0.792370000000     0.157630000000     0.350560000000    -0.133248   
C286     C      0.783790000000     0.140830000000     0.449350000000    -0.0822137  
C287     C      0.811710000000     0.122100000000     0.344590000000    -0.0985598  
C288     C      0.805800000000     0.139460000000     0.421480000000     0.025708   
C289     C      0.803070000000     0.139530000000     0.371620000000     0.0544931  
C290     C      0.788320000000     0.143730000000     0.495810000000     0.0679346  
C291     C      0.835050000000     0.142280000000     0.488300000000     0.068106   
C292     C      0.831340000000     0.139580000000     0.441670000000    -0.0819247  
C293     C      0.160060000000     0.367870000000     0.649290000000     0.182662   
C294     C      0.125340000000     0.313320000000     0.653700000000     0.0753747  
C295     C      0.159290000000     0.365910000000     0.602130000000    -0.133545   
C296     C      0.142330000000     0.358180000000     0.503240000000    -0.0825456  
C297     C      0.123370000000     0.311070000000     0.606980000000    -0.0988488  
C298     C      0.141570000000     0.334910000000     0.530730000000     0.0255568  
C299     C      0.141290000000     0.337310000000     0.580550000000     0.0544522  
C300     C      0.144970000000     0.356720000000     0.456720000000     0.067971   
C301     C      0.144900000000     0.309110000000     0.463520000000     0.0679428  
C302     C      0.142340000000     0.309890000000     0.510210000000    -0.0820251  
C303     C      0.176270000000     0.356900000000     0.141370000000     0.180159   
C304     C      0.187880000000     0.316240000000     0.152640000000     0.0727348  
C305     C      0.183530000000     0.357680000000     0.095600000000    -0.134394   
C306     C      0.169760000000     0.305960000000     0.007110000000    -0.0827936  
C307     C      0.192580000000     0.315000000000     0.106650000000    -0.0998418  
C308     C      0.191830000000     0.333150000000     0.028570000000     0.0251431  
C309     C      0.190690000000     0.336060000000     0.077810000000     0.0543798  
C310     C      0.166880000000     0.305480000000     0.960410000000     0.0681485  
C311     C      0.209090000000     0.357180000000     0.955700000000     0.0667309  
C312     C      0.212100000000     0.358710000000     0.002430000000    -0.0835855  
C313     C      0.063840000000     0.264720000000     0.238320000000     0.182127   
C314     C      0.056330000000     0.302830000000     0.275860000000     0.0756497  
C315     C      0.032340000000     0.248790000000     0.226010000000    -0.13319    
C316     C      0.963050000000     0.211170000000     0.217350000000    -0.0820751  
C317     C      0.025050000000     0.287530000000     0.263370000000    -0.0979256  
C318     C      0.979380000000     0.243560000000     0.223200000000     0.0257212  
C319     C      0.012520000000     0.260000000000     0.238300000000     0.0542548  
C320     C      0.932750000000     0.196240000000     0.200700000000     0.0682654  
C321     C      0.933280000000     0.244180000000     0.197540000000     0.0684109  
C322     C      0.963940000000     0.259990000000     0.213090000000    -0.0816005  
C323     C      0.277000000000     0.410320000000     0.326310000000     0.182011   
C324     C      0.266500000000     0.362870000000     0.361150000000     0.0758989  
C325     C      0.306720000000     0.425310000000     0.346090000000    -0.133094   
C326     C      0.362240000000     0.455190000000     0.408550000000    -0.0823642  
C327     C      0.296120000000     0.377120000000     0.380010000000    -0.0984645  
C328     C      0.348360000000     0.424440000000     0.393130000000     0.0255661  
C329     C      0.316560000000     0.408820000000     0.373220000000     0.0543977  
C330     C      0.392340000000     0.469740000000     0.426090000000     0.0672343  
C331     C      0.395260000000     0.424030000000     0.414640000000     0.0680821  
C332     C      0.365300000000     0.408870000000     0.396560000000    -0.0818808  
C333     C      0.501760000000     0.967850000000     0.635700000000     0.181194   
C334     C      0.538100000000     0.022040000000     0.631890000000     0.0745024  
C335     C      0.502450000000     0.969590000000     0.682920000000    -0.132694   
C336     C      0.518670000000     0.976690000000     0.782520000000    -0.0830015  
C337     C      0.540010000000     0.024010000000     0.678610000000    -0.0981046  
C338     C      0.520690000000     0.000370000000     0.754600000000     0.0268194  
C339     C      0.521220000000     0.997910000000     0.704790000000     0.0528803  
C340     C      0.516060000000     0.978590000000     0.829040000000     0.067688   
C341     C      0.518420000000     0.027240000000     0.821220000000     0.0684986  
C342     C      0.521050000000     0.026070000000     0.774650000000    -0.0825008  
C343     C      0.452040000000     0.988460000000     0.328860000000     0.181877   
C344     C      0.503790000000     0.030910000000     0.323500000000     0.0753496  
C345     C      0.450310000000     0.986410000000     0.281690000000    -0.135045   
C346     C      0.480350000000     0.030690000000     0.179190000000    -0.0831582  
C347     C      0.501760000000     0.030540000000     0.276760000000    -0.099234   
C348     C      0.474000000000     0.004990000000     0.205860000000     0.0259369  
C349     C      0.475300000000     0.007390000000     0.255440000000     0.0552536  
C350     C      0.481180000000     0.028530000000     0.132450000000     0.0682793  
C351     C      0.469550000000     0.976130000000     0.138170000000     0.0681374  
C352     C      0.467800000000     0.977270000000     0.184900000000    -0.0831755  
C353     C      0.730710000000     0.096820000000     0.070760000000     0.181938   
C354     C      0.721120000000     0.132520000000     0.111370000000     0.0745512  
C355     C      0.699400000000     0.080590000000     0.057310000000    -0.133465   
C356     C      0.629220000000     0.042680000000     0.049010000000    -0.0819564  
C357     C      0.690330000000     0.117450000000     0.096790000000    -0.0989936  
C358     C      0.646540000000     0.075160000000     0.052480000000     0.0255344  
C359     C      0.679020000000     0.091010000000     0.069700000000     0.054507   
C360     C      0.598940000000     0.028230000000     0.032110000000     0.0681821  
C361     C      0.602430000000     0.077210000000     0.021710000000     0.0680598  
C362     C      0.632760000000     0.092400000000     0.038370000000    -0.0823649  
C363     C      0.203470000000     0.843170000000     0.638220000000     0.181795   
C364     C      0.181310000000     0.875910000000     0.642420000000     0.0750066  
C365     C      0.202130000000     0.843710000000     0.591060000000    -0.13305    
C366     C      0.210070000000     0.859450000000     0.491850000000    -0.0823319  
C367     C      0.180930000000     0.877730000000     0.595650000000    -0.0984153  
C368     C      0.187460000000     0.859930000000     0.519440000000     0.0257039  
C369     C      0.190380000000     0.860660000000     0.569310000000     0.0542399  
C370     C      0.205480000000     0.855790000000     0.445440000000     0.0677632  
C371     C      0.157420000000     0.854650000000     0.452450000000     0.0681492  
C372     C      0.161200000000     0.858130000000     0.499010000000    -0.0819194  
C373     C      0.157290000000     0.793390000000     0.138660000000     0.180349   
C374     C      0.122360000000     0.812960000000     0.142560000000     0.0737148  
C375     C      0.157090000000     0.795070000000     0.091470000000    -0.13326    
C376     C      0.142040000000     0.787420000000     0.991780000000    -0.0824692  
C377     C      0.120870000000     0.813610000000     0.095810000000    -0.0985652  
C378     C      0.140180000000     0.809100000000     0.019810000000     0.0258248  
C379     C      0.139230000000     0.805730000000     0.069620000000     0.0536586  
C380     C      0.145270000000     0.792310000000     0.945370000000     0.0680981  
C381     C      0.143580000000     0.838930000000     0.953350000000     0.0681124  
C382     C      0.140460000000     0.834830000000     0.999880000000    -0.0824088  
C383     C      0.279210000000     0.875880000000     0.825430000000     0.181244   
C384     C      0.266480000000     0.911170000000     0.860470000000     0.0754642  
C385     C      0.307730000000     0.889870000000     0.848550000000    -0.133088   
C386     C      0.359470000000     0.912920000000     0.917240000000    -0.0822106  
C387     C      0.295010000000     0.925910000000     0.882620000000    -0.0984956  
C388     C      0.346500000000     0.930400000000     0.900910000000     0.0255119  
C389     C      0.315850000000     0.914990000000     0.877560000000     0.0542017  
C390     C      0.389020000000     0.927830000000     0.936680000000     0.0677264  
C391     C      0.392870000000     0.976940000000     0.925990000000     0.0674432  
C392     C      0.363450000000     0.962780000000     0.906130000000    -0.0818209  
C393     C      0.803450000000     0.687270000000     0.785440000000     0.181714   
C394     C      0.807800000000     0.641850000000     0.792670000000     0.0742857  
C395     C      0.804590000000     0.690350000000     0.832560000000    -0.134533   
C396     C      0.786780000000     0.646030000000     0.935680000000    -0.0833599  
C397     C      0.806880000000     0.643360000000     0.839270000000    -0.100142   
C398     C      0.807530000000     0.671070000000     0.909140000000     0.0253676  
C399     C      0.806380000000     0.668350000000     0.859640000000     0.0547726  
C400     C      0.790090000000     0.647660000000     0.982300000000     0.0683051  
C401     C      0.833700000000     0.698510000000     0.976940000000     0.0681069  
C402     C      0.830650000000     0.697870000000     0.930190000000    -0.0826766  
C403     C      0.840700000000     0.636180000000     0.480440000000     0.177374   
C404     C      0.863690000000     0.691320000000     0.479670000000     0.0736019  
C405     C      0.846130000000     0.636680000000     0.434180000000    -0.126101   
C406     C      0.830090000000     0.639260000000     0.337750000000    -0.082843   
C407     C      0.867030000000     0.691870000000     0.433090000000    -0.0965551  
C408     C      0.855790000000     0.663520000000     0.359540000000     0.0271094  
C409     C      0.857610000000     0.664250000000     0.409570000000     0.051945   
C410     C      0.826760000000     0.640060000000     0.291360000000     0.0690517  
C411     C      0.873960000000     0.688060000000     0.286770000000     0.0680541  
C412     C      0.878150000000     0.687890000000     0.333270000000    -0.0827157  
C413     C      0.732550000000     0.637610000000     0.562840000000     0.181563   
C414     C      0.723980000000     0.592710000000     0.603660000000     0.0751161  
C415     C      0.700890000000     0.622380000000     0.551140000000    -0.133186   
C416     C      0.630700000000     0.590230000000     0.546190000000    -0.0824019  
C417     C      0.692800000000     0.576890000000     0.591000000000    -0.0985627  
C418     C      0.647850000000     0.574890000000     0.549370000000     0.0255921  
C419     C      0.680790000000     0.591720000000     0.564660000000     0.054245   
C420     C      0.600190000000     0.574420000000     0.530290000000     0.068025   
C421     C      0.602830000000     0.528380000000     0.521120000000     0.0673848  
C422     C      0.633450000000     0.543540000000     0.536660000000    -0.0825403  
C423     C      0.931910000000     0.694490000000     0.709670000000     0.182317   
C424     C      0.940860000000     0.738870000000     0.667100000000     0.0759412  
C425     C      0.963510000000     0.709840000000     0.721840000000    -0.132854   
C426     C      0.030320000000     0.788820000000     0.736560000000    -0.0823334  
C427     C      0.971920000000     0.754850000000     0.680370000000    -0.0984077  
C428     C      0.016460000000     0.757500000000     0.723950000000     0.0258427  
C429     C      0.983690000000     0.740360000000     0.707890000000     0.054621   
C430     C      0.060910000000     0.804480000000     0.752220000000     0.0680885  
C431     C      0.064540000000     0.758950000000     0.743570000000     0.0682749  
C432     C      0.033990000000     0.742590000000     0.727730000000    -0.0819653  
Cu1      Cu     0.834220000000     0.691290000000     0.630330000000     0.840297   
Cu2      Cu     0.830490000000     0.640360000000     0.640620000000     0.844354   
Cu3      Cu     0.166010000000     0.861210000000     0.798690000000     0.84367    
Cu4      Cu     0.169690000000     0.813730000000     0.791030000000     0.842639   
Cu5      Cu     0.497270000000     0.027920000000     0.975950000000     0.846212   
Cu6      Cu     0.493880000000     0.976870000000     0.984220000000     0.843334   
Cu7      Cu     0.165910000000     0.360530000000     0.301440000000     0.840952   
Cu8      Cu     0.164020000000     0.310080000000     0.307060000000     0.844412   
Cu9      Cu     0.827490000000     0.190860000000     0.152080000000     0.841375   
Cu10     Cu     0.830410000000     0.143080000000     0.142950000000     0.843072   
Cu11     Cu     0.496590000000     0.523110000000     0.477050000000     0.843648   
Cu12     Cu     0.498430000000     0.474580000000     0.470330000000     0.845001   
Cu13     Cu     0.141270000000     0.310780000000     0.808620000000     0.845245   
Cu14     Cu     0.189970000000     0.360930000000     0.801150000000     0.845676   
Cu15     Cu     0.304530000000     0.142350000000     0.635330000000     0.84285    
Cu16     Cu     0.354670000000     0.190500000000     0.646040000000     0.849873   
Cu17     Cu     0.975190000000     0.479380000000     0.970260000000     0.844601   
Cu18     Cu     0.025100000000     0.528550000000     0.974880000000     0.843749   
Cu19     Cu     0.637680000000     0.811320000000     0.295970000000     0.84539    
Cu20     Cu     0.688330000000     0.859380000000     0.303100000000     0.844596   
Cu21     Cu     0.806800000000     0.644360000000     0.137430000000     0.852332   
Cu22     Cu     0.855170000000     0.694980000000     0.131670000000     0.840103   
Cu23     Cu     0.474920000000     0.976280000000     0.482240000000     0.842309   
Cu24     Cu     0.523430000000     0.026700000000     0.477250000000     0.844158   
Cu25     Cu     0.356740000000     0.166580000000     0.143640000000     0.843638   
Cu26     Cu     0.306690000000     0.165630000000     0.139270000000     0.853124   
Cu27     Cu     0.524120000000     0.497240000000     0.969970000000     0.842982   
Cu28     Cu     0.476480000000     0.500610000000     0.977470000000     0.846355   
Cu29     Cu     0.184750000000     0.828020000000     0.292010000000     0.844588   
Cu30     Cu     0.136360000000     0.830090000000     0.298020000000     0.840559   
Cu31     Cu     0.026610000000     0.500380000000     0.476700000000     0.844694   
Cu32     Cu     0.975290000000     0.496020000000     0.468110000000     0.842489   
Cu33     Cu     0.856300000000     0.164230000000     0.643300000000     0.843664   
Cu34     Cu     0.809030000000     0.168370000000     0.650100000000     0.847217   
Cu35     Cu     0.688490000000     0.831600000000     0.802630000000     0.847034   
Cu36     Cu     0.636970000000     0.827210000000     0.797000000000     0.84184    
H1       H      0.741460000000     0.076240000000     0.696700000000     0.0263214  
H2       H      0.746460000000     0.930980000000     0.793470000000     0.0239427  
H3       H      0.795100000000     0.015420000000     0.705210000000     0.0494598  
H4       H      0.773380000000     0.984720000000     0.770960000000     0.0534308  
H5       H      0.713270000000     0.023330000000     0.724720000000     0.0496879  
H6       H      0.692220000000     0.970710000000     0.699600000000     0.0630765  
H7       H      0.822800000000     0.068500000000     0.678750000000     0.0264137  
H8       H      0.650360000000     0.887320000000     0.711820000000     0.106345   
H9       H      0.649800000000     0.920610000000     0.693320000000     0.0876463  
H10      H      0.919400000000     0.251620000000     0.581360000000     0.0263309  
H11      H      0.913730000000     0.401570000000     0.504550000000     0.0240143  
H12      H      0.874550000000     0.320030000000     0.597330000000     0.0486458  
H13      H      0.887410000000     0.350420000000     0.535950000000     0.0524283  
H14      H      0.945990000000     0.302220000000     0.547470000000     0.0484688  
H15      H      0.974980000000     0.353150000000     0.550280000000     0.0629425  
H16      H      0.847050000000     0.267740000000     0.626870000000     0.0255291  
H17      H      0.015540000000     0.418180000000     0.475630000000     0.105837   
H18      H      0.017400000000     0.390670000000     0.510580000000     0.0873335  
H19      H      0.001390000000     0.591970000000     0.437170000000     0.0269915  
H20      H      0.156570000000     0.745530000000     0.368300000000     0.0228356  
H21      H      0.112110000000     0.643830000000     0.395250000000     0.0483985  
H22      H      0.132200000000     0.695720000000     0.404420000000     0.052812   
H23      H      0.025790000000     0.644480000000     0.407970000000     0.0498992  
H24      H      0.044910000000     0.673780000000     0.343780000000     0.0634325  
H25      H      0.087570000000     0.592560000000     0.427400000000     0.0258171  
H26      H      0.043270000000     0.709380000000     0.294090000000     0.0886732  
H27      H      0.076720000000     0.743500000000     0.276150000000     0.105293   
H28      H      0.575280000000     0.730990000000     0.830700000000     0.0260263  
H29      H      0.584080000000     0.584200000000     0.908160000000     0.024463   
H30      H      0.640770000000     0.688990000000     0.884920000000     0.0490235  
H31      H      0.609580000000     0.634550000000     0.872900000000     0.0537879  
H32      H      0.550550000000     0.679510000000     0.863330000000     0.0494342  
H33      H      0.545020000000     0.656420000000     0.935930000000     0.0631496  
H34      H      0.664740000000     0.740070000000     0.850770000000     0.0246347  
H35      H      0.510020000000     0.621750000000     0.989000000000     0.0872994  
H36      H      0.509980000000     0.587760000000     0.006270000000     0.104992   
H37      H      0.328060000000     0.073540000000     0.190930000000     0.0266651  
H38      H      0.175370000000     0.929750000000     0.284920000000     0.0235415  
H39      H      0.213670000000     0.017430000000     0.200740000000     0.0493143  
H40      H      0.202790000000     0.983880000000     0.263550000000     0.0532971  
H41      H      0.301330000000     0.020220000000     0.217120000000     0.0499991  
H42      H      0.268350000000     0.969030000000     0.189120000000     0.0635772  
H43      H      0.241130000000     0.071000000000     0.176170000000     0.026311   
H44      H      0.259330000000     0.918480000000     0.180640000000     0.0883586  
H45      H      0.225430000000     0.885490000000     0.199940000000     0.106903   
H46      H      0.421940000000     0.261910000000     0.105640000000     0.0261781  
H47      H      0.417320000000     0.413360000000     0.040400000000     0.0242678  
H48      H      0.359400000000     0.308920000000     0.058320000000     0.0496941  
H49      H      0.391500000000     0.362320000000     0.073430000000     0.0539619  
H50      H      0.448200000000     0.314230000000     0.075420000000     0.0494101  
H51      H      0.454770000000     0.340650000000     0.005750000000     0.0633006  
H52      H      0.334090000000     0.257260000000     0.090120000000     0.0267898  
H53      H      0.490340000000     0.410850000000     0.938760000000     0.105289   
H54      H      0.489910000000     0.376300000000     0.953800000000     0.0876454  
H55      H      0.613250000000     0.800630000000     0.657380000000     0.0248549  
H56      H      0.706780000000     0.860720000000     0.442730000000     0.0241852  
H57      H      0.709700000000     0.817900000000     0.584180000000     0.0495901  
H58      H      0.705150000000     0.855910000000     0.523320000000     0.0545681  
H59      H      0.614970000000     0.798010000000     0.575860000000     0.0503524  
H60      H      0.626800000000     0.763720000000     0.513390000000     0.0640091  
H61      H      0.707180000000     0.819610000000     0.665510000000     0.0260983  
H62      H      0.613470000000     0.739920000000     0.442280000000     0.0873215  
H63      H      0.634500000000     0.757930000000     0.393130000000     0.105537   
H64      H      0.706700000000     0.892180000000     0.166190000000     0.0265878  
H65      H      0.627100000000     0.855690000000     0.929490000000     0.0247614  
H66      H      0.613890000000     0.822100000000     0.077240000000     0.0504359  
H67      H      0.625110000000     0.863650000000     0.009350000000     0.0544072  
H68      H      0.708900000000     0.896490000000     0.084740000000     0.0504915  
H69      H      0.702200000000     0.849110000000     0.030340000000     0.0651001  
H70      H      0.612520000000     0.817700000000     0.158580000000     0.0259705  
H71      H      0.698340000000     0.816800000000     0.921100000000     0.10618    
H72      H      0.718390000000     0.829470000000     0.972080000000     0.0874864  
H73      H      0.823500000000     0.759330000000     0.165720000000     0.0260518  
H74      H      0.666800000000     0.754270000000     0.226960000000     0.0236252  
H75      H      0.713860000000     0.696340000000     0.211930000000     0.049425   
H76      H      0.692380000000     0.728540000000     0.194450000000     0.0535629  
H77      H      0.796740000000     0.785460000000     0.193560000000     0.0492319  
H78      H      0.776620000000     0.791790000000     0.263500000000     0.0631317  
H79      H      0.740970000000     0.671030000000     0.182640000000     0.0266463  
H80      H      0.775610000000     0.826460000000     0.315690000000     0.0872942  
H81      H      0.741350000000     0.826510000000     0.330610000000     0.104814   
H82      H      0.659780000000     0.926820000000     0.336210000000     0.0263216  
H83      H      0.503350000000     0.921460000000     0.407400000000     0.02305    
H84      H      0.549640000000     0.865580000000     0.380480000000     0.0485504  
H85      H      0.528240000000     0.896410000000     0.371450000000     0.0529439  
H86      H      0.634400000000     0.953810000000     0.365780000000     0.0494907  
H87      H      0.615450000000     0.963310000000     0.430670000000     0.0630257  
H88      H      0.575130000000     0.839860000000     0.347940000000     0.0262728  
H89      H      0.616650000000     0.000430000000     0.480120000000     0.0883466  
H90      H      0.582940000000     0.000540000000     0.498200000000     0.105023   
H91      H      0.956420000000     0.514660000000     0.602940000000     0.0265503  
H92      H      0.040780000000     0.556940000000     0.838570000000     0.0245728  
H93      H      0.043010000000     0.526780000000     0.698210000000     0.0498492  
H94      H      0.043370000000     0.559810000000     0.757890000000     0.0534497  
H95      H      0.953460000000     0.520050000000     0.683420000000     0.0488077  
H96      H      0.946430000000     0.491010000000     0.750260000000     0.0634459  
H97      H      0.045610000000     0.522170000000     0.617650000000     0.0266369  
H98      H      0.916900000000     0.477280000000     0.816630000000     0.0876133  
H99      H      0.932790000000     0.493350000000     0.869540000000     0.105574   
H100     H      0.965810000000     0.441710000000     0.103600000000     0.0248198  
H101     H      0.049290000000     0.495760000000     0.339390000000     0.0233333  
H102     H      0.048870000000     0.523760000000     0.195610000000     0.0495177  
H103     H      0.053140000000     0.495040000000     0.258580000000     0.0529577  
H104     H      0.964880000000     0.434810000000     0.184140000000     0.048121   
H105     H      0.954280000000     0.456300000000     0.248020000000     0.062952   
H106     H      0.049630000000     0.529540000000     0.114700000000     0.0263597  
H107     H      0.940310000000     0.440850000000     0.367200000000     0.104492   
H108     H      0.924220000000     0.438560000000     0.313550000000     0.0871725  
H109     H      0.835760000000     0.581290000000     0.088710000000     0.0259393  
H110     H      0.988150000000     0.591160000000     0.989980000000     0.0228365  
H111     H      0.949820000000     0.640270000000     0.073930000000     0.0493043  
H112     H      0.961670000000     0.618180000000     0.014110000000     0.0534725  
H113     H      0.862000000000     0.554950000000     0.060730000000     0.0486324  
H114     H      0.893480000000     0.535440000000     0.081920000000     0.0628604  
H115     H      0.922470000000     0.666350000000     0.099190000000     0.0262671  
H116     H      0.899990000000     0.492140000000     0.084140000000     0.0870633  
H117     H      0.933200000000     0.492370000000     0.063140000000     0.105475   
H118     H      0.280610000000     0.141240000000     0.001660000000     0.0264451  
H119     H      0.374550000000     0.178310000000     0.782720000000     0.0242614  
H120     H      0.367140000000     0.137770000000     0.925950000000     0.0491367  
H121     H      0.374020000000     0.171640000000     0.862850000000     0.0539081  
H122     H      0.280000000000     0.137130000000     0.921080000000     0.0494218  
H123     H      0.275950000000     0.106840000000     0.858080000000     0.0629793  
H124     H      0.367510000000     0.142870000000     0.007160000000     0.0262681  
H125     H      0.265670000000     0.126260000000     0.745570000000     0.106911   
H126     H      0.248840000000     0.102320000000     0.792440000000     0.0867663  
H127     H      0.297390000000     0.192860000000     0.273280000000     0.0261184  
H128     H      0.379860000000     0.218370000000     0.508940000000     0.0238655  
H129     H      0.380250000000     0.192580000000     0.364270000000     0.0500019  
H130     H      0.384190000000     0.224890000000     0.428370000000     0.0536847  
H131     H      0.296550000000     0.198170000000     0.353980000000     0.048917   
H132     H      0.285570000000     0.163960000000     0.415790000000     0.0638615  
H133     H      0.380960000000     0.188270000000     0.283310000000     0.0265764  
H134     H      0.255020000000     0.149780000000     0.480850000000     0.0863304  
H135     H      0.270580000000     0.162530000000     0.534980000000     0.100001   
H136     H      0.408110000000     0.005210000000     0.515320000000     0.0249247  
H137     H      0.413210000000     0.161870000000     0.583170000000     0.0229653  
H138     H      0.469110000000     0.114450000000     0.564370000000     0.0487183  
H139     H      0.439550000000     0.136830000000     0.552030000000     0.0530952  
H140     H      0.380880000000     0.030730000000     0.543100000000     0.0493137  
H141     H      0.368990000000     0.049280000000     0.606080000000     0.063456   
H142     H      0.495220000000     0.088850000000     0.533350000000     0.0257705  
H143     H      0.328800000000     0.081970000000     0.666240000000     0.10639    
H144     H      0.329520000000     0.048150000000     0.650240000000     0.088995   
H145     H      0.088650000000     0.501240000000     0.920390000000     0.0254962  
H146     H      0.078700000000     0.347870000000     0.823470000000     0.0230907  
H147     H      0.030640000000     0.386940000000     0.906950000000     0.0497279  
H148     H      0.051950000000     0.374730000000     0.847000000000     0.0538909  
H149     H      0.115100000000     0.475270000000     0.891290000000     0.0484695  
H150     H      0.135380000000     0.444260000000     0.911830000000     0.0624566  
H151     H      0.004510000000     0.413890000000     0.933140000000     0.0267436  
H152     H      0.178310000000     0.404320000000     0.893630000000     0.104851   
H153     H      0.178750000000     0.437890000000     0.913650000000     0.0864892  
H154     H      0.169910000000     0.245090000000     0.768880000000     0.0259035  
H155     H      0.324870000000     0.248340000000     0.705970000000     0.0248741  
H156     H      0.278500000000     0.306510000000     0.717380000000     0.0499461  
H157     H      0.299550000000     0.274530000000     0.736810000000     0.0541902  
H158     H      0.195410000000     0.218100000000     0.739440000000     0.0489367  
H159     H      0.214890000000     0.210030000000     0.669760000000     0.062623   
H160     H      0.252730000000     0.332650000000     0.748300000000     0.0268618  
H161     H      0.215470000000     0.174020000000     0.619640000000     0.0856842  
H162     H      0.249550000000     0.173550000000     0.605110000000     0.100234   
H163     H      0.440300000000     0.482030000000     0.842260000000     0.0263964  
H164     H      0.486480000000     0.444830000000     0.606200000000     0.024569   
H165     H      0.517820000000     0.474940000000     0.747220000000     0.049506   
H166     H      0.485980000000     0.441240000000     0.686900000000     0.0534851  
H167     H      0.432380000000     0.476810000000     0.761750000000     0.0488251  
H168     H      0.454090000000     0.507190000000     0.695830000000     0.0635643  
H169     H      0.524660000000     0.479360000000     0.827920000000     0.0252658  
H170     H      0.437680000000     0.520590000000     0.629680000000     0.0875425  
H171     H      0.438660000000     0.505520000000     0.576420000000     0.104999   
H172     H      0.559510000000     0.515540000000     0.106640000000     0.0262892  
H173     H      0.509600000000     0.552960000000     0.340330000000     0.023987   
H174     H      0.481530000000     0.523890000000     0.198850000000     0.0492543  
H175     H      0.511980000000     0.557080000000     0.259610000000     0.0529406  
H176     H      0.566700000000     0.521140000000     0.187390000000     0.0486602  
H177     H      0.544570000000     0.491580000000     0.253470000000     0.0636549  
H178     H      0.475550000000     0.519210000000     0.118240000000     0.0252679  
H179     H      0.557600000000     0.492960000000     0.373570000000     0.105101   
H180     H      0.559860000000     0.478190000000     0.320660000000     0.0877125  
H181     H      0.810180000000     0.192220000000     0.788270000000     0.0265     
H182     H      0.866890000000     0.155550000000     0.008490000000     0.0241152  
H183     H      0.898510000000     0.190850000000     0.861620000000     0.0491423  
H184     H      0.872720000000     0.160400000000     0.928120000000     0.0533619  
H185     H      0.815060000000     0.197140000000     0.868530000000     0.0491091  
H186     H      0.843380000000     0.228360000000     0.929100000000     0.0627972  
H187     H      0.892330000000     0.184950000000     0.780430000000     0.0262708  
H188     H      0.812960000000     0.211820000000     0.040960000000     0.10628    
H189     H      0.821900000000     0.235500000000     0.993570000000     0.0864916  
H190     H      0.770990000000     0.145340000000     0.515910000000     0.0260391  
H191     H      0.820320000000     0.112040000000     0.278740000000     0.0245471  
H192     H      0.849080000000     0.138770000000     0.421560000000     0.0497525  
H193     H      0.819190000000     0.106990000000     0.359370000000     0.0534687  
H194     H      0.763260000000     0.140010000000     0.435410000000     0.0484634  
H195     H      0.784510000000     0.170600000000     0.370610000000     0.0633915  
H196     H      0.855570000000     0.143070000000     0.502300000000     0.0264769  
H197     H      0.767710000000     0.184150000000     0.305120000000     0.0872668  
H198     H      0.769530000000     0.170210000000     0.251350000000     0.104445   
H199     H      0.145940000000     0.375510000000     0.436900000000     0.025957   
H200     H      0.112180000000     0.291870000000     0.672440000000     0.0244666  
H201     H      0.142010000000     0.291470000000     0.530140000000     0.0495938  
H202     H      0.108360000000     0.288640000000     0.591680000000     0.0534436  
H203     H      0.141090000000     0.377590000000     0.517530000000     0.0483263  
H204     H      0.172580000000     0.386850000000     0.582420000000     0.0634629  
H205     H      0.146110000000     0.289670000000     0.449170000000     0.0262207  
H206     H      0.171180000000     0.400580000000     0.701860000000     0.105463   
H207     H      0.185840000000     0.416700000000     0.648480000000     0.0875812  
H208     H      0.148640000000     0.284400000000     0.945130000000     0.0261421  
H209     H      0.190640000000     0.299970000000     0.173740000000     0.0238211  
H210     H      0.229450000000     0.380100000000     0.018120000000     0.0495425  
H211     H      0.197720000000     0.297660000000     0.093710000000     0.0539229  
H212     H      0.153600000000     0.285810000000     0.026450000000     0.0502509  
H213     H      0.180460000000     0.373080000000     0.072970000000     0.0642169  
H214     H      0.224640000000     0.377830000000     0.936710000000     0.0239996  
H215     H      0.149060000000     0.369000000000     0.182970000000     0.10616    
H216     H      0.160730000000     0.388820000000     0.131690000000     0.0870007  
H217     H      0.921210000000     0.171210000000     0.196600000000     0.0257643  
H218     H      0.064770000000     0.323640000000     0.296210000000     0.022011   
H219     H      0.975540000000     0.285050000000     0.216180000000     0.0491153  
H220     H      0.010730000000     0.297080000000     0.274150000000     0.0532224  
H221     H      0.973460000000     0.197170000000     0.225720000000     0.0488094  
H222     H      0.023920000000     0.228640000000     0.204350000000     0.063013   
H223     H      0.922360000000     0.257870000000     0.189970000000     0.0265761  
H224     H      0.073470000000     0.235050000000     0.199800000000     0.087622   
H225     H      0.106850000000     0.268340000000     0.219710000000     0.105496   
H226     H      0.402150000000     0.493580000000     0.437390000000     0.0247597  
H227     H      0.251260000000     0.338510000000     0.369120000000     0.02429    
H228     H      0.355820000000     0.385260000000     0.384530000000     0.0497837  
H229     H      0.302550000000     0.363380000000     0.400920000000     0.0539142  
H230     H      0.349900000000     0.468010000000     0.407400000000     0.0487536  
H231     H      0.322730000000     0.449490000000     0.338200000000     0.0628538  
H232     H      0.407540000000     0.411130000000     0.416210000000     0.0271246  
H233     H      0.252000000000     0.415930000000     0.272720000000     0.106016   
H234     H      0.286410000000     0.449830000000     0.288520000000     0.0873064  
H235     H      0.514060000000     0.959510000000     0.849270000000     0.0260389  
H236     H      0.552040000000     0.043470000000     0.613450000000     0.0239097  
H237     H      0.522320000000     0.044820000000     0.754420000000     0.0499839  
H238     H      0.555660000000     0.046180000000     0.694090000000     0.0531032  
H239     H      0.518940000000     0.956680000000     0.768580000000     0.0485213  
H240     H      0.488480000000     0.948710000000     0.702450000000     0.0628297  
H241     H      0.518150000000     0.047290000000     0.835070000000     0.0265354  
H242     H      0.474470000000     0.919120000000     0.636090000000     0.0868466  
H243     H      0.489790000000     0.935120000000     0.582920000000     0.104329   
H244     H      0.486710000000     0.049140000000     0.113020000000     0.0262455  
H245     H      0.525640000000     0.048250000000     0.338150000000     0.0252301  
H246     H      0.462760000000     0.956930000000     0.204620000000     0.0509578  
H247     H      0.521440000000     0.047440000000     0.257340000000     0.0550806  
H248     H      0.484970000000     0.052410000000     0.194390000000     0.0501426  
H249     H      0.428950000000     0.969430000000     0.265440000000     0.0640405  
H250     H      0.465460000000     0.954470000000     0.123290000000     0.0261964  
H251     H      0.404660000000     0.955690000000     0.336230000000     0.0873848  
H252     H      0.422640000000     0.976020000000     0.385920000000     0.105396   
H253     H      0.586350000000     0.003050000000     0.030390000000     0.026856   
H254     H      0.728410000000     0.152330000000     0.133520000000     0.0210097  
H255     H      0.645440000000     0.117570000000     0.039580000000     0.0488525  
H256     H      0.675320000000     0.126250000000     0.107450000000     0.0528713  
H257     H      0.638820000000     0.028380000000     0.059830000000     0.050202   
H258     H      0.691560000000     0.061090000000     0.034440000000     0.0639479  
H259     H      0.592740000000     0.091540000000     0.011300000000     0.0262246  
H260     H      0.774530000000     0.102930000000     0.050880000000     0.106242   
H261     H      0.742010000000     0.069530000000     0.029550000000     0.0885062  
H262     H      0.223300000000     0.854910000000     0.425560000000     0.0258099  
H263     H      0.172130000000     0.888300000000     0.661110000000     0.0242403  
H264     H      0.143020000000     0.858220000000     0.518930000000     0.0499098  
H265     H      0.172550000000     0.891940000000     0.580270000000     0.0532254  
H266     H      0.231110000000     0.861540000000     0.505990000000     0.048185   
H267     H      0.210580000000     0.831040000000     0.571500000000     0.0630309  
H268     H      0.136350000000     0.852550000000     0.438280000000     0.0267511  
H269     H      0.226420000000     0.833790000000     0.690790000000     0.100182   
H270     H      0.228500000000     0.819360000000     0.637540000000     0.0861352  
H271     H      0.147140000000     0.775180000000     0.925110000000     0.0262792  
H272     H      0.108870000000     0.820950000000     0.161060000000     0.0242132  
H273     H      0.139320000000     0.852340000000     0.020160000000     0.0496028  
H274     H      0.105880000000     0.820990000000     0.080350000000     0.0532746  
H275     H      0.141220000000     0.766830000000     0.005530000000     0.0487118  
H276     H      0.170720000000     0.787740000000     0.071980000000     0.0629295  
H277     H      0.144370000000     0.859540000000     0.939580000000     0.0262886  
H278     H      0.183150000000     0.770450000000     0.138060000000     0.0870256  
H279     H      0.167670000000     0.771100000000     0.191090000000     0.10452    
H280     H      0.398280000000     0.913360000000     0.948180000000     0.0259819  
H281     H      0.250700000000     0.919820000000     0.867260000000     0.0243655  
H282     H      0.354560000000     0.977340000000     0.893740000000     0.0493475  
H283     H      0.300240000000     0.945260000000     0.904690000000     0.0536741  
H284     H      0.346970000000     0.887780000000     0.914890000000     0.0490487  
H285     H      0.324260000000     0.882160000000     0.841930000000     0.0629369  
H286     H      0.405370000000     0.002090000000     0.928450000000     0.0270612  
H287     H      0.290990000000     0.847650000000     0.787310000000     0.0860033  
H288     H      0.257350000000     0.847590000000     0.768440000000     0.100459   
H289     H      0.773850000000     0.627450000000     0.001510000000     0.0264097  
H290     H      0.809920000000     0.622770000000     0.778910000000     0.0232739  
H291     H      0.847090000000     0.717690000000     0.910540000000     0.050789   
H292     H      0.807900000000     0.625670000000     0.859330000000     0.0543813  
H293     H      0.768410000000     0.625050000000     0.920420000000     0.0499461  
H294     H      0.802430000000     0.708920000000     0.848150000000     0.0639408  
H295     H      0.852520000000     0.719300000000     0.991960000000     0.0261982  
H296     H      0.793380000000     0.723290000000     0.776830000000     0.0875286  
H297     H      0.788020000000     0.701120000000     0.728060000000     0.106564   
H298     H      0.806140000000     0.621010000000     0.276330000000     0.026655   
H299     H      0.871670000000     0.713540000000     0.496140000000     0.0236551  
H300     H      0.898570000000     0.706960000000     0.348530000000     0.0491463  
H301     H      0.875890000000     0.713820000000     0.415600000000     0.0528411  
H302     H      0.811810000000     0.620190000000     0.356470000000     0.0508849  
H303     H      0.838520000000     0.614840000000     0.416810000000     0.0693227  
H304     H      0.891520000000     0.707610000000     0.267820000000     0.0259909  
H305     H      0.811210000000     0.602870000000     0.529460000000     0.104255   
H307     H      0.587860000000     0.587270000000     0.528430000000     0.0264726  
H308     H      0.731810000000     0.580390000000     0.625270000000     0.0233084  
H309     H      0.645910000000     0.530840000000     0.537810000000     0.0489721  
H310     H      0.678070000000     0.553250000000     0.602570000000     0.0532843  
H311     H      0.640690000000     0.614330000000     0.556190000000     0.0495752  
H312     H      0.692480000000     0.633810000000     0.528800000000     0.0633399  
H313     H      0.592730000000     0.504180000000     0.511440000000     0.0250102  
H314     H      0.775820000000     0.675280000000     0.541050000000     0.106071   
H315     H      0.742750000000     0.675860000000     0.521480000000     0.0877935  
H316     H      0.070620000000     0.828690000000     0.761570000000     0.0261997  
H317     H      0.933260000000     0.750960000000     0.644630000000     0.0238727  
H318     H      0.024330000000     0.718470000000     0.718020000000     0.05031    
H319     H      0.986750000000     0.778380000000     0.668420000000     0.0535956  
H320     H      0.017510000000     0.801160000000     0.735030000000     0.0493795  
H321     H      0.971780000000     0.698680000000     0.744940000000     0.0637817  
H322     H      0.077270000000     0.746510000000     0.745670000000     0.0269677  
H323     H      0.888500000000     0.657230000000     0.731900000000     0.106157   
H324     H      0.921430000000     0.656800000000     0.752370000000     0.088246   
N1       N      0.703580000000     0.919170000000     0.760070000000    -0.210895   
N2       N      0.784260000000     0.076400000000     0.685820000000    -0.191932   
N3       N      0.660720000000     0.911430000000     0.713030000000    -0.218776   
N4       N      0.959530000000     0.407090000000     0.506970000000    -0.210518   
N5       N      0.881100000000     0.255800000000     0.606180000000    -0.192268   
N6       N      0.005280000000     0.402010000000     0.501420000000    -0.217497   
N7       N      0.115150000000     0.739560000000     0.336390000000    -0.211591   
N8       N      0.042570000000     0.588270000000     0.434240000000    -0.191987   
N9       N      0.066930000000     0.725030000000     0.298780000000    -0.21905    
N10      N      0.548990000000     0.590200000000     0.941410000000    -0.211084   
N11      N      0.621870000000     0.739570000000     0.838830000000    -0.192376   
N12      N      0.517550000000     0.605820000000     0.983030000000    -0.218439   
N13      N      0.205970000000     0.917840000000     0.250440000000    -0.211114   
N14      N      0.286640000000     0.076290000000     0.181550000000    -0.191948   
N15      N      0.239650000000     0.909560000000     0.201160000000    -0.218707   
N16      N      0.451730000000     0.407470000000     0.004950000000    -0.211075   
N17      N      0.376060000000     0.255570000000     0.099890000000    -0.191938   
N18      N      0.482650000000     0.392280000000     0.961100000000    -0.218468   
N19      N      0.667490000000     0.815210000000     0.430250000000    -0.211109   
N20      N      0.660230000000     0.810860000000     0.667430000000    -0.192643   
N21      N      0.629680000000     0.760490000000     0.426410000000    -0.218044   
N22      N      0.665050000000     0.846480000000     0.933050000000    -0.210526   
N23      N      0.659750000000     0.854030000000     0.168300000000    -0.192245   
N24      N      0.702610000000     0.830370000000     0.949740000000    -0.217922   
N25      N      0.706730000000     0.788500000000     0.263260000000    -0.211526   
N26      N      0.784360000000     0.713230000000     0.172470000000    -0.191988   
N27      N      0.752430000000     0.819180000000     0.308090000000    -0.218527   
N28      N      0.544730000000     0.957630000000     0.438410000000    -0.21188    
N29      N      0.619440000000     0.881350000000     0.340110000000    -0.192268   
N30      N      0.592910000000     0.992040000000     0.475580000000    -0.21947    
N31      N      0.992400000000     0.521910000000     0.841990000000    -0.210727   
N32      N      0.001020000000     0.517580000000     0.604290000000    -0.191654   
N33      N      0.936820000000     0.490190000000     0.836120000000    -0.218148   
N34      N      0.999800000000     0.476860000000     0.340960000000    -0.211311   
N35      N      0.007390000000     0.486450000000     0.103200000000    -0.192196   
N36      N      0.944140000000     0.447730000000     0.333620000000    -0.218064   
N37      N      0.955840000000     0.547490000000     0.020180000000    -0.211894   
N38      N      0.877120000000     0.625790000000     0.096000000000    -0.192233   
N39      N      0.920040000000     0.503380000000     0.064410000000    -0.218996   
N40      N      0.325390000000     0.148070000000     0.773500000000    -0.211379   
N41      N      0.324450000000     0.143110000000     0.010330000000    -0.192663   
N42      N      0.269270000000     0.117560000000     0.775370000000    -0.218459   
N43      N      0.330430000000     0.187280000000     0.509370000000    -0.211972   
N44      N      0.338760000000     0.189330000000     0.272430000000    -0.192803   
N45      N      0.274770000000     0.160290000000     0.501280000000    -0.217724   
N46      N      0.375090000000     0.120360000000     0.610900000000    -0.211901   
N47      N      0.453650000000     0.045080000000     0.522320000000    -0.192636   
N48      N      0.338380000000     0.071990000000     0.645590000000    -0.219084   
N49      N      0.122650000000     0.380770000000     0.852230000000    -0.211951   
N50      N      0.044640000000     0.459540000000     0.928930000000    -0.192213   
N51      N      0.167280000000     0.417470000000     0.894700000000    -0.219011   
N52      N      0.284820000000     0.213320000000     0.670570000000    -0.211538   
N53      N      0.209360000000     0.290870000000     0.760720000000    -0.192344   
N54      N      0.238720000000     0.181490000000     0.627040000000    -0.218269   
N55      N      0.471300000000     0.478530000000     0.603610000000    -0.211068   
N56      N      0.483280000000     0.481520000000     0.841080000000    -0.192272   
N57      N      0.445540000000     0.508480000000     0.609990000000    -0.218201   
N58      N      0.525010000000     0.519500000000     0.344210000000    -0.211123   
N59      N      0.516810000000     0.516530000000     0.106440000000    -0.192202   
N60      N      0.551400000000     0.490060000000     0.339720000000    -0.217996   
N61      N      0.849370000000     0.187150000000     0.015930000000    -0.210075   
N62      N      0.850590000000     0.187700000000     0.778330000000    -0.191889   
N63      N      0.825910000000     0.219760000000     0.011570000000    -0.217964   
N64      N      0.803620000000     0.144520000000     0.277420000000    -0.210945   
N65      N      0.814150000000     0.145200000000     0.515080000000    -0.191819   
N66      N      0.776270000000     0.172870000000     0.284970000000    -0.218002   
N67      N      0.144980000000     0.340970000000     0.674830000000    -0.211089   
N68      N      0.146890000000     0.332700000000     0.437030000000    -0.191852   
N69      N      0.174090000000     0.396710000000     0.668250000000    -0.21825    
N70      N      0.180140000000     0.337110000000     0.170440000000    -0.210996   
N71      N      0.185720000000     0.331260000000     0.935030000000    -0.192537   
N72      N      0.162380000000     0.373460000000     0.154050000000    -0.218154   
N73      N      0.075330000000     0.291110000000     0.264960000000    -0.21193    
N74      N      0.917910000000     0.212580000000     0.190900000000    -0.191963   
N75      N      0.082680000000     0.255160000000     0.219490000000    -0.219007   
N76      N      0.256350000000     0.379350000000     0.336080000000    -0.210842   
N77      N      0.408830000000     0.454350000000     0.428900000000    -0.191996   
N78      N      0.270680000000     0.426380000000     0.294900000000    -0.21864    
N79      N      0.517730000000     0.994800000000     0.610410000000    -0.211112   
N80      N      0.515270000000     0.003370000000     0.848180000000    -0.191682   
N81      N      0.486890000000     0.939100000000     0.616490000000    -0.218052   
N82      N      0.479980000000     0.009010000000     0.349520000000    -0.210431   
N83      N      0.476800000000     0.001760000000     0.112170000000    -0.191862   
N84      N      0.425220000000     0.971560000000     0.352460000000    -0.217861   
N85      N      0.741050000000     0.122000000000     0.099770000000    -0.211444   
N86      N      0.585530000000     0.045340000000     0.018820000000    -0.191751   
N87      N      0.750450000000     0.088880000000     0.050720000000    -0.21849    
N88      N      0.190590000000     0.857290000000     0.663670000000    -0.210921   
N89      N      0.178980000000     0.852630000000     0.425960000000    -0.191762   
N90      N      0.219470000000     0.830420000000     0.657240000000    -0.217526   
N91      N      0.141870000000     0.804920000000     0.164030000000    -0.211314   
N92      N      0.146690000000     0.818210000000     0.926360000000    -0.191796   
N93      N      0.171110000000     0.778400000000     0.157700000000    -0.218384   
N94      N      0.257860000000     0.885530000000     0.833720000000    -0.210919   
N95      N      0.405870000000     0.959660000000     0.940260000000    -0.191596   
N96      N      0.274800000000     0.854930000000     0.792590000000    -0.217837   
N97      N      0.807860000000     0.664410000000     0.765640000000    -0.210907   
N98      N      0.814010000000     0.673290000000     0.002700000000    -0.192145   
N99      N      0.795720000000     0.705710000000     0.761210000000    -0.218027   
N100     N      0.850480000000     0.663930000000     0.503670000000    -0.209412   
N101     N      0.848120000000     0.664610000000     0.266100000000    -0.19211    
N102     N      0.821990000000     0.607430000000     0.498180000000    -0.17338    
N103     N      0.743640000000     0.623020000000     0.590990000000    -0.211366   
N104     N      0.586330000000     0.543720000000     0.517760000000    -0.192174   
N105     N      0.751740000000     0.665150000000     0.542030000000    -0.218707   
N106     N      0.921030000000     0.708750000000     0.680450000000    -0.210497   
N107     N      0.077980000000     0.789720000000     0.755590000000    -0.191685   
N108     N      0.912570000000     0.667250000000     0.731090000000    -0.218464   
O1       O      0.879240000000     0.710340000000     0.650020000000    -0.398092   
O2       O      0.788860000000     0.667330000000     0.611540000000    -0.402084   
O3       O      0.821690000000     0.688210000000     0.695960000000    -0.400334   
O4       O      0.845900000000     0.689130000000     0.565590000000    -0.401961   
O5       O      0.844080000000     0.643910000000     0.575540000000    -0.399803   
O6       O      0.816740000000     0.641530000000     0.704360000000    -0.403271   
O7       O      0.785840000000     0.621320000000     0.619310000000    -0.402138   
O8       O      0.875490000000     0.664290000000     0.661150000000    -0.399332   
O9       O      0.211500000000     0.883120000000     0.816730000000    -0.399708   
O10      O      0.120850000000     0.834720000000     0.779930000000    -0.397439   
O11      O      0.154190000000     0.848530000000     0.863860000000    -0.396973   
O12      O      0.178370000000     0.869340000000     0.732760000000    -0.398725   
O13      O      0.181790000000     0.826530000000     0.726110000000    -0.401754   
O14      O      0.157370000000     0.805540000000     0.856820000000    -0.39707    
O15      O      0.124160000000     0.791800000000     0.772830000000    -0.395972   
O16      O      0.214880000000     0.840300000000     0.809750000000    -0.401258   
O17      O      0.451530000000     0.003890000000     0.958990000000    -0.396876   
O18      O      0.542640000000     0.047000000000     0.993520000000    -0.39809    
O19      O      0.508240000000     0.026490000000     0.910620000000    -0.39778    
O20      O      0.486210000000     0.024500000000     0.042240000000    -0.39766    
O21      O      0.482270000000     0.977980000000     0.049340000000    -0.397852   
O22      O      0.505710000000     0.980630000000     0.918180000000    -0.397472   
O23      O      0.539530000000     0.000930000000     0.001860000000    -0.396408   
O24      O      0.448610000000     0.957820000000     0.965910000000    -0.397461   
O25      O      0.211820000000     0.380320000000     0.316940000000    -0.39869    
O26      O      0.119820000000     0.335720000000     0.285990000000    -0.4002     
O27      O      0.155560000000     0.356130000000     0.367820000000    -0.398504   
O28      O      0.176020000000     0.360110000000     0.235580000000    -0.405063   
O29      O      0.173910000000     0.314460000000     0.240250000000    -0.402664   
O30      O      0.153900000000     0.310570000000     0.373270000000    -0.396238   
O31      O      0.118510000000     0.290280000000     0.290590000000    -0.401776   
O32      O      0.209940000000     0.334710000000     0.322150000000    -0.399983   
O33      O      0.782700000000     0.165320000000     0.130710000000    -0.403637   
O34      O      0.872640000000     0.211850000000     0.171990000000    -0.395678   
O35      O      0.841130000000     0.200290000000     0.087060000000    -0.402375   
O36      O      0.813940000000     0.176690000000     0.216220000000    -0.400396   
O37      O      0.816480000000     0.133500000000     0.208090000000    -0.397917   
O38      O      0.843490000000     0.157110000000     0.078380000000    -0.401038   
O39      O      0.875070000000     0.168490000000     0.164360000000    -0.397981   
O40      O      0.785560000000     0.122300000000     0.122330000000    -0.401326   
O41      O      0.541350000000     0.543340000000     0.498200000000    -0.39794    
O42      O      0.451940000000     0.498240000000     0.455420000000    -0.400105   
O43      O      0.482260000000     0.509920000000     0.541270000000    -0.400139   
O44      O      0.511250000000     0.531560000000     0.412100000000    -0.399079   
O45      O      0.513010000000     0.487810000000     0.406310000000    -0.400687   
O46      O      0.483760000000     0.466050000000     0.535120000000    -0.399721   
O47      O      0.453650000000     0.454430000000     0.448880000000    -0.396557   
O48      O      0.543070000000     0.499500000000     0.492220000000    -0.399565   
O49      O      0.121500000000     0.336000000000     0.829300000000    -0.399071   
O50      O      0.165730000000     0.290500000000     0.787330000000    -0.398416   
O51      O      0.154740000000     0.309980000000     0.872850000000    -0.398057   
O52      O      0.132640000000     0.316400000000     0.743620000000    -0.399581   
O53      O      0.176390000000     0.361770000000     0.737020000000    -0.400116   
O54      O      0.198680000000     0.355330000000     0.866060000000    -0.401411   
O55      O      0.209620000000     0.335840000000     0.780030000000    -0.39815    
O56      O      0.165760000000     0.381150000000     0.823490000000    -0.404141   
O57      O      0.284310000000     0.168250000000     0.649830000000    -0.405048   
O58      O      0.329680000000     0.121190000000     0.622200000000    -0.398967   
O59      O      0.305910000000     0.134420000000     0.701660000000    -0.406139   
O60      O      0.307730000000     0.155060000000     0.570060000000    -0.403457   
O61      O      0.352940000000     0.198640000000     0.579550000000    -0.400535   
O62      O      0.351090000000     0.177820000000     0.711690000000    -0.400608   
O63      O      0.374940000000     0.164910000000     0.631000000000    -0.401511   
O64      O      0.329680000000     0.211530000000     0.659720000000    -0.402179   
O65      O      0.999990000000     0.459380000000     0.949520000000    -0.397881   
O66      O      0.955200000000     0.503950000000     0.992330000000    -0.403629   
O67      O      0.973010000000     0.491510000000     0.905600000000    -0.399141   
O68      O      0.982240000000     0.472060000000     0.035130000000    -0.401422   
O69      O      0.027210000000     0.516600000000     0.039700000000    -0.39692    
O70      O      0.018030000000     0.535800000000     0.909930000000    -0.399577   
O71      O      0.000200000000     0.548520000000     0.995750000000    -0.399383   
O72      O      0.045130000000     0.503800000000     0.953300000000    -0.397414   
O73      O      0.618300000000     0.836840000000     0.315930000000    -0.398344   
O74      O      0.662060000000     0.790290000000     0.277130000000    -0.401548   
O75      O      0.642640000000     0.803230000000     0.361430000000    -0.401852   
O76      O      0.637550000000     0.824190000000     0.231220000000    -0.398237   
O77      O      0.683910000000     0.867000000000     0.237210000000    -0.397651   
O78      O      0.688060000000     0.846760000000     0.368090000000    -0.402555   
O79      O      0.707780000000     0.833510000000     0.285080000000    -0.401315   
O80      O      0.663920000000     0.880650000000     0.320710000000    -0.397012   
O81      O      0.785670000000     0.668720000000     0.155330000000    -0.398846   
O82      O      0.832470000000     0.624870000000     0.118710000000    -0.399503   
O83      O      0.818470000000     0.643970000000     0.202610000000    -0.399686   
O84      O      0.799870000000     0.649510000000     0.071700000000    -0.400034   
O85      O      0.843560000000     0.695190000000     0.066110000000    -0.396355   
O86      O      0.862060000000     0.689790000000     0.197800000000    -0.396226   
O87      O      0.876370000000     0.670460000000     0.114370000000    -0.396451   
O88      O      0.829230000000     0.714500000000     0.149590000000    -0.396952   
O89      O      0.500270000000     0.956750000000     0.461880000000    -0.401775   
O90      O      0.454100000000     0.000680000000     0.501640000000    -0.399171   
O91      O      0.467650000000     0.982520000000     0.416990000000    -0.401439   
O92      O      0.487000000000     0.974970000000     0.547230000000    -0.39976    
O93      O      0.531090000000     0.020130000000     0.542220000000    -0.402087   
O94      O      0.510850000000     0.028440000000     0.412640000000    -0.398031   
O95      O      0.498210000000     0.046150000000     0.498660000000    -0.398472   
O96      O      0.544110000000     0.002320000000     0.457030000000    -0.400114   
O97      O      0.376820000000     0.211890000000     0.124240000000    -0.396527   
O98      O      0.331670000000     0.121220000000     0.162720000000    -0.396536   
O99      O      0.350150000000     0.153640000000     0.078010000000    -0.39834    
O100     O      0.358480000000     0.179390000000     0.208750000000    -0.399021   
O101     O      0.313480000000     0.178910000000     0.204570000000    -0.400537   
O102     O      0.304840000000     0.152540000000     0.074450000000    -0.401173   
O103     O      0.286560000000     0.120530000000     0.158900000000    -0.399276   
O104     O      0.331510000000     0.210740000000     0.119840000000    -0.399431   
O105     O      0.497280000000     0.451390000000     0.984800000000    -0.400614   
O106     O      0.546350000000     0.543350000000     0.955540000000    -0.39961    
O107     O      0.530700000000     0.507110000000     0.036830000000    -0.396248   
O108     O      0.512860000000     0.487790000000     0.903950000000    -0.39962    
O109     O      0.469700000000     0.490610000000     0.910930000000    -0.398647   
O110     O      0.487680000000     0.510240000000     0.043220000000    -0.401766   
O111     O      0.503390000000     0.546460000000     0.962250000000    -0.40012    
O112     O      0.454330000000     0.454460000000     0.992110000000    -0.399216   
O113     O      0.205340000000     0.872860000000     0.271280000000    -0.400977   
O114     O      0.159530000000     0.783320000000     0.313170000000    -0.402775   
O115     O      0.172090000000     0.814260000000     0.227380000000    -0.403196   
O116     O      0.192700000000     0.842010000000     0.357170000000    -0.397288   
O117     O      0.148410000000     0.842780000000     0.363130000000    -0.396332   
O118     O      0.128930000000     0.817060000000     0.232450000000    -0.40177    
O119     O      0.115420000000     0.784590000000     0.316660000000    -0.398924   
O120     O      0.162020000000     0.875300000000     0.278300000000    -0.397879   
O121     O      0.044910000000     0.545440000000     0.457960000000    -0.39908    
O122     O      0.003360000000     0.454870000000     0.494450000000    -0.402418   
O123     O      0.023120000000     0.488300000000     0.410720000000    -0.400657   
O124     O      0.025030000000     0.511860000000     0.541820000000    -0.396607   
O125     O      0.978080000000     0.506700000000     0.534450000000    -0.397254   
O126     O      0.977330000000     0.485590000000     0.402770000000    -0.40055    
O127     O      0.957060000000     0.450310000000     0.484160000000    -0.400646   
O128     O      0.998650000000     0.542130000000     0.452430000000    -0.395083   
O129     O      0.878450000000     0.209570000000     0.624540000000    -0.398296   
O130     O      0.829500000000     0.119170000000     0.662150000000    -0.398359   
O131     O      0.843900000000     0.152270000000     0.578060000000    -0.396512   
O132     O      0.864110000000     0.176680000000     0.709420000000    -0.395176   
O133     O      0.821190000000     0.180050000000     0.715060000000    -0.400072   
O134     O      0.801340000000     0.156250000000     0.584230000000    -0.398452   
O135     O      0.786690000000     0.122720000000     0.668010000000    -0.397302   
O136     O      0.836040000000     0.213720000000     0.631980000000    -0.396913   
O137     O      0.665450000000     0.785820000000     0.819980000000    -0.400394   
O138     O      0.706440000000     0.876830000000     0.784940000000    -0.399696   
O139     O      0.688250000000     0.842690000000     0.868010000000    -0.403205   
O140     O      0.683890000000     0.820290000000     0.736540000000    -0.399861   
O141     O      0.637330000000     0.816340000000     0.731280000000    -0.400527   
O142     O      0.641520000000     0.838050000000     0.863560000000    -0.398189   
O143     O      0.660000000000     0.873040000000     0.780050000000    -0.400329   
O144     O      0.618940000000     0.781890000000     0.814100000000    -0.398628   


