data_structure

_audit_creation_method RASPA-1.0
_audit_creation_date 2023-5-23
_audit_author_name 'Poobodin Mano'

_cell_length_a    30.4072
_cell_length_b    30.4071
_cell_length_c    45.5215
_cell_angle_alpha 89.9999
_cell_angle_beta  90
_cell_angle_gamma 120
_cell_volume      36450.1

_symmetry_cell_setting          triclinic
_symmetry_space_group_name_Hall 'P 1'
_symmetry_space_group_name_H-M  'P 1'
_symmetry_Int_Tables_number     1

_symmetry_equiv_pos_as_xyz 'x,y,z'

loop_
_atom_site_label
_atom_site_type_symbol
_atom_site_fract_x
_atom_site_fract_y
_atom_site_fract_z
_atom_site_charge
C1       C      0.992030000000     0.995060000000     0.269940000000     0.40497    
C2       C      0.992240000000     0.994790000000     0.387150000000     0.404936   
C3       C      0.904450000000     0.907220000000     0.328540000000     0.405861   
C4       C      0.079840000000     0.082650000000     0.328560000000     0.406      
C5       C      0.992200000000     0.495190000000     0.270120000000     0.405393   
C6       C      0.992350000000     0.494910000000     0.387330000000     0.405308   
C7       C      0.079990000000     0.582770000000     0.328750000000     0.406157   
C8       C      0.904580000000     0.407360000000     0.328700000000     0.405989   
C9       C      0.492390000000     0.994990000000     0.387360000000     0.405415   
C10      C      0.492140000000     0.995120000000     0.270150000000     0.405217   
C11      C      0.579990000000     0.082780000000     0.328730000000     0.405885   
C12      C      0.404570000000     0.907370000000     0.328780000000     0.405977   
C13      C      0.492240000000     0.494860000000     0.387340000000     0.405786   
C14      C      0.492020000000     0.495010000000     0.270140000000     0.405837   
C15      C      0.404420000000     0.407250000000     0.328750000000     0.405907   
C16      C      0.579850000000     0.582640000000     0.328730000000     0.405964   
C17      C      0.991060000000     0.994670000000     0.053820000000     0.404708   
C18      C      0.990990000000     0.994320000000     0.936610000000     0.404738   
C19      C      0.078720000000     0.994520000000     0.995250000000     0.405389   
C20      C      0.903290000000     0.994480000000     0.995190000000     0.405245   
C21      C      0.991150000000     0.494700000000     0.053990000000     0.405229   
C22      C      0.990990000000     0.494280000000     0.936790000000     0.405269   
C23      C      0.903340000000     0.494490000000     0.995380000000     0.405777   
C24      C      0.078750000000     0.494500000000     0.995400000000     0.405873   
C25      C      0.491120000000     0.994680000000     0.054030000000     0.405287   
C26      C      0.490940000000     0.994370000000     0.936820000000     0.405181   
C27      C      0.403320000000     0.994540000000     0.995430000000     0.405278   
C28      C      0.578710000000     0.994510000000     0.995400000000     0.40554    
C29      C      0.491130000000     0.494640000000     0.054010000000     0.405732   
C30      C      0.491010000000     0.494360000000     0.936810000000     0.405767   
C31      C      0.578750000000     0.494500000000     0.995420000000     0.405942   
C32      C      0.403350000000     0.494500000000     0.995400000000     0.405934   
C33      C      0.991730000000     0.905980000000     0.661910000000     0.405505   
C34      C      0.991700000000     0.081370000000     0.661860000000     0.405611   
C35      C      0.991860000000     0.993730000000     0.603280000000     0.405037   
C36      C      0.991560000000     0.993660000000     0.720480000000     0.404991   
C37      C      0.991710000000     0.405970000000     0.662040000000     0.405755   
C38      C      0.991740000000     0.581390000000     0.662060000000     0.405696   
C39      C      0.991890000000     0.493790000000     0.603450000000     0.40531    
C40      C      0.991560000000     0.493610000000     0.720660000000     0.405403   
C41      C      0.491740000000     0.906220000000     0.662100000000     0.405858   
C42      C      0.491740000000     0.081620000000     0.662080000000     0.40601    
C43      C      0.491930000000     0.994020000000     0.603490000000     0.405277   
C44      C      0.491550000000     0.993850000000     0.720690000000     0.405279   
C45      C      0.491740000000     0.406210000000     0.662080000000     0.405986   
C46      C      0.491730000000     0.581620000000     0.662070000000     0.405904   
C47      C      0.491890000000     0.494000000000     0.603470000000     0.405823   
C48      C      0.491570000000     0.493870000000     0.720680000000     0.405679   
C49      C      0.447560000000     0.770270000000     0.655400000000    -0.0851546  
C50      C      0.491740000000     0.768520000000     0.662090000000     0.0342197  
C51      C      0.535920000000     0.814450000000     0.668780000000    -0.0851756  
C52      C      0.535430000000     0.860130000000     0.668250000000     0.0702356  
C53      C      0.448050000000     0.816440000000     0.655940000000     0.0702207  
C54      C      0.491740000000     0.719310000000     0.662080000000     0.0342395  
C55      C      0.447510000000     0.673360000000     0.668690000000    -0.0852194  
C56      C      0.448010000000     0.627690000000     0.668150000000     0.0702822  
C57      C      0.535460000000     0.671410000000     0.656000000000     0.070267   
C58      C      0.535960000000     0.717580000000     0.655470000000    -0.0851941  
C59      C      0.447520000000     0.173360000000     0.668690000000    -0.085201   
C60      C      0.491740000000     0.219310000000     0.662080000000     0.0342735  
C61      C      0.535970000000     0.217590000000     0.655480000000    -0.0852393  
C62      C      0.535470000000     0.171420000000     0.656020000000     0.0703014  
C63      C      0.448020000000     0.127690000000     0.668150000000     0.0703398  
C64      C      0.491740000000     0.268530000000     0.662080000000     0.0342422  
C65      C      0.447560000000     0.270270000000     0.655400000000    -0.085157   
C66      C      0.448050000000     0.316440000000     0.655930000000     0.0702794  
C67      C      0.535430000000     0.360130000000     0.668240000000     0.070278   
C68      C      0.535920000000     0.314460000000     0.668780000000    -0.0851608  
C69      C      0.947560000000     0.770030000000     0.655280000000    -0.0851276  
C70      C      0.991750000000     0.768300000000     0.661980000000     0.0338984  
C71      C      0.035930000000     0.814240000000     0.668650000000    -0.0848187  
C72      C      0.035440000000     0.859910000000     0.668090000000     0.0704484  
C73      C      0.948050000000     0.816200000000     0.655790000000     0.0701451  
C74      C      0.991750000000     0.719080000000     0.662010000000     0.033909   
C75      C      0.947530000000     0.673140000000     0.668640000000    -0.085167   
C76      C      0.948030000000     0.627470000000     0.668120000000     0.0701888  
C77      C      0.035480000000     0.671180000000     0.655970000000     0.07045    
C78      C      0.035970000000     0.717350000000     0.655420000000    -0.0847923  
C79      C      0.947510000000     0.270030000000     0.655280000000    -0.0851049  
C80      C      0.991700000000     0.268270000000     0.661950000000     0.0338852  
C81      C      0.035880000000     0.314190000000     0.668660000000    -0.0847869  
C82      C      0.035390000000     0.359870000000     0.668150000000     0.0704936  
C83      C      0.948010000000     0.316200000000     0.655850000000     0.0701765  
C84      C      0.991690000000     0.219050000000     0.661910000000     0.0339213  
C85      C      0.947470000000     0.173100000000     0.668510000000    -0.0851181  
C86      C      0.947970000000     0.127430000000     0.667950000000     0.0702098  
C87      C      0.035420000000     0.171170000000     0.655800000000     0.0704502  
C88      C      0.035910000000     0.217330000000     0.655290000000    -0.0847854  
C89      C      0.518690000000     0.539500000000     0.860680000000    -0.0860227  
C90      C      0.491190000000     0.494110000000     0.845030000000     0.0344653  
C91      C      0.463600000000     0.448790000000     0.860750000000    -0.086114   
C92      C      0.464190000000     0.449520000000     0.891420000000     0.0701947  
C93      C      0.517940000000     0.538960000000     0.891360000000     0.0701375  
C94      C      0.491290000000     0.494010000000     0.812460000000     0.0344315  
C95      C      0.445990000000     0.466430000000     0.796730000000    -0.0860338  
C96      C      0.446720000000     0.467030000000     0.766060000000     0.0701832  
C97      C      0.536160000000     0.520780000000     0.766130000000     0.0702156  
C98      C      0.536700000000     0.521520000000     0.796810000000    -0.0860321  
C99      C      0.463510000000     0.948800000000     0.860760000000    -0.0859212  
C100     C      0.491110000000     0.994100000000     0.845040000000     0.0340959  
C101     C      0.518610000000     0.039500000000     0.860690000000    -0.0856345  
C102     C      0.517870000000     0.038960000000     0.891370000000     0.0703708  
C103     C      0.464100000000     0.949520000000     0.891440000000     0.0699895  
C104     C      0.491230000000     0.994010000000     0.812470000000     0.0340896  
C105     C      0.445930000000     0.966420000000     0.796740000000    -0.0859356  
C106     C      0.446670000000     0.967020000000     0.766060000000     0.070022   
C107     C      0.536120000000     0.020770000000     0.766150000000     0.0703603  
C108     C      0.536640000000     0.021500000000     0.796830000000    -0.0855975  
C109     C      0.811580000000     0.538680000000     0.988690000000    -0.085119   
C110     C      0.765660000000     0.494500000000     0.995390000000     0.0328767  
C111     C      0.767400000000     0.450310000000     0.002080000000    -0.0835859  
C112     C      0.813570000000     0.450810000000     0.001540000000     0.0714117  
C113     C      0.857260000000     0.538180000000     0.989220000000     0.0698592  
C114     C      0.716440000000     0.494500000000     0.995400000000     0.0328543  
C115     C      0.714720000000     0.538720000000     0.002010000000    -0.0835496  
C116     C      0.668550000000     0.538220000000     0.001480000000     0.0713671  
C117     C      0.624820000000     0.450770000000     0.989340000000     0.0698571  
C118     C      0.670490000000     0.450270000000     0.988800000000    -0.0850947  
C119     C      0.170500000000     0.450280000000     0.988810000000    -0.0850436  
C120     C      0.216440000000     0.494500000000     0.995410000000     0.0328728  
C121     C      0.214720000000     0.538720000000     0.002010000000    -0.0834936  
C122     C      0.168550000000     0.538230000000     0.001470000000     0.0713469  
C123     C      0.124820000000     0.450770000000     0.989340000000     0.0698578  
C124     C      0.265660000000     0.494500000000     0.995410000000     0.0328735  
C125     C      0.267410000000     0.450320000000     0.002100000000    -0.0835253  
C126     C      0.313570000000     0.450810000000     0.001560000000     0.0713675  
C127     C      0.357260000000     0.538190000000     0.989250000000     0.0698966  
C128     C      0.311590000000     0.538690000000     0.988720000000    -0.0851118  
C129     C      0.018670000000     0.539350000000     0.860640000000    -0.085639   
C130     C      0.991160000000     0.493930000000     0.845010000000     0.0341043  
C131     C      0.963570000000     0.448640000000     0.860740000000    -0.0859378  
C132     C      0.964160000000     0.449390000000     0.891420000000     0.0699886  
C133     C      0.017920000000     0.538840000000     0.891320000000     0.0702997  
C134     C      0.991270000000     0.493800000000     0.812440000000     0.0340853  
C135     C      0.945970000000     0.466200000000     0.796710000000    -0.0859454  
C136     C      0.946700000000     0.466790000000     0.766040000000     0.070079   
C137     C      0.036150000000     0.520530000000     0.766110000000     0.070371   
C138     C      0.036680000000     0.521290000000     0.796790000000    -0.0856258  
C139     C      0.811520000000     0.038660000000     0.988540000000    -0.0847032  
C140     C      0.765600000000     0.994480000000     0.995250000000     0.0325068  
C141     C      0.767350000000     0.950290000000     0.001920000000    -0.0834444  
C142     C      0.813520000000     0.950790000000     0.001360000000     0.0712334  
C143     C      0.857200000000     0.038170000000     0.989050000000     0.0700542  
C144     C      0.716390000000     0.994480000000     0.995290000000     0.0324744  
C145     C      0.714680000000     0.038710000000     0.001930000000    -0.0831296  
C146     C      0.668510000000     0.038220000000     0.001430000000     0.0715308  
C147     C      0.624760000000     0.950770000000     0.989280000000     0.0697831  
C148     C      0.670420000000     0.950270000000     0.988710000000    -0.0849659  
C149     C      0.170480000000     0.950320000000     0.988710000000    -0.0850232  
C150     C      0.216420000000     0.994550000000     0.995340000000     0.0325095  
C151     C      0.214670000000     0.038770000000     0.001930000000    -0.0831422  
C152     C      0.168500000000     0.038260000000     0.001360000000     0.0715989  
C153     C      0.124810000000     0.950810000000     0.989220000000     0.0698267  
C154     C      0.265640000000     0.994550000000     0.995370000000     0.0325397  
C155     C      0.267380000000     0.950370000000     0.002080000000    -0.0834726  
C156     C      0.313540000000     0.950860000000     0.001560000000     0.0712717  
C157     C      0.357250000000     0.038240000000     0.989260000000     0.0701136  
C158     C      0.311580000000     0.038740000000     0.988700000000    -0.0847298  
C159     C      0.945990000000     0.966280000000     0.796540000000    -0.0858847  
C160     C      0.991290000000     0.993890000000     0.812260000000     0.0337667  
C161     C      0.036690000000     0.021390000000     0.796610000000    -0.0852504  
C162     C      0.036150000000     0.020620000000     0.765930000000     0.0706085  
C163     C      0.946710000000     0.966850000000     0.765860000000     0.0699162  
C164     C      0.991190000000     0.994000000000     0.844830000000     0.0337818  
C165     C      0.018680000000     0.039420000000     0.860470000000    -0.0852952  
C166     C      0.017920000000     0.038900000000     0.891150000000     0.070569   
C167     C      0.964180000000     0.949450000000     0.891240000000     0.0699133  
C168     C      0.963600000000     0.948700000000     0.860560000000    -0.0859444  
C169     C      0.464670000000     0.512410000000     0.463480000000    -0.0860118  
C170     C      0.492190000000     0.494510000000     0.479120000000     0.034451   
C171     C      0.519760000000     0.476780000000     0.463400000000    -0.0860109  
C172     C      0.519120000000     0.476870000000     0.432720000000     0.0701376  
C173     C      0.465370000000     0.512570000000     0.432800000000     0.0701353  
C174     C      0.492110000000     0.494340000000     0.511700000000     0.0344834  
C175     C      0.446720000000     0.476450000000     0.527350000000    -0.0860344  
C176     C      0.447280000000     0.476280000000     0.558030000000     0.070239   
C177     C      0.536720000000     0.511970000000     0.558090000000     0.0701822  
C178     C      0.537430000000     0.512070000000     0.527410000000    -0.0860305  
C179     C      0.473920000000     0.522510000000     0.194090000000    -0.0859561  
C180     C      0.491640000000     0.494930000000     0.178360000000     0.034473   
C181     C      0.509530000000     0.467410000000     0.194000000000    -0.0860148  
C182     C      0.509700000000     0.468120000000     0.224680000000     0.0702098  
C183     C      0.474020000000     0.521880000000     0.224770000000     0.0701903  
C184     C      0.491460000000     0.494860000000     0.145790000000     0.0345047  
C185     C      0.473570000000     0.449460000000     0.130130000000    -0.0859872  
C186     C      0.473410000000     0.450030000000     0.099460000000     0.0703219  
C187     C      0.509100000000     0.539470000000     0.099400000000     0.0702537  
C188     C      0.509200000000     0.540180000000     0.130080000000    -0.0859986  
C189     C      0.446810000000     0.976520000000     0.527360000000    -0.0860034  
C190     C      0.492220000000     0.994420000000     0.511710000000     0.0341371  
C191     C      0.537520000000     0.012140000000     0.527430000000    -0.0856561  
C192     C      0.536790000000     0.012020000000     0.558110000000     0.070369   
C193     C      0.447350000000     0.976330000000     0.558030000000     0.070112   
C194     C      0.492310000000     0.994620000000     0.479140000000     0.0340971  
C195     C      0.519890000000     0.976890000000     0.463410000000    -0.0859675  
C196     C      0.519270000000     0.977010000000     0.432730000000     0.0700649  
C197     C      0.465520000000     0.012700000000     0.432820000000     0.0704063  
C198     C      0.464800000000     0.012520000000     0.463500000000    -0.0856351  
C199     C      0.509250000000     0.040230000000     0.130090000000    -0.0855996  
C200     C      0.491520000000     0.994920000000     0.145800000000     0.034155   
C201     C      0.473620000000     0.949520000000     0.130150000000    -0.0858672  
C202     C      0.473430000000     0.950070000000     0.099470000000     0.0701342  
C203     C      0.509140000000     0.039520000000     0.099410000000     0.0704764  
C204     C      0.491720000000     0.995010000000     0.178380000000     0.0341893  
C205     C      0.509610000000     0.967490000000     0.194020000000    -0.0859884  
C206     C      0.509800000000     0.968210000000     0.224700000000     0.0701267  
C207     C      0.474120000000     0.021970000000     0.224780000000     0.0704379  
C208     C      0.474000000000     0.022590000000     0.194100000000    -0.085661   
C209     C      0.964720000000     0.512350000000     0.463470000000    -0.0859645  
C210     C      0.992230000000     0.494440000000     0.479100000000     0.0341233  
C211     C      0.019810000000     0.476730000000     0.463370000000    -0.0856502  
C212     C      0.019200000000     0.476870000000     0.432690000000     0.0704039  
C213     C      0.965450000000     0.512560000000     0.432790000000     0.0700938  
C214     C      0.992140000000     0.494230000000     0.511680000000     0.0341628  
C215     C      0.946740000000     0.476330000000     0.527330000000    -0.086022   
C216     C      0.947290000000     0.476130000000     0.558000000000     0.0701222  
C217     C      0.036730000000     0.511810000000     0.558070000000     0.0704069  
C218     C      0.037450000000     0.511940000000     0.527390000000    -0.0856809  
C219     C      0.715920000000     0.174530000000     0.322010000000    -0.085117   
C220     C      0.717680000000     0.220460000000     0.328700000000     0.0342359  
C221     C      0.671750000000     0.218720000000     0.335410000000    -0.0851928  
C222     C      0.626080000000     0.172550000000     0.334880000000     0.0703166  
C223     C      0.669760000000     0.128850000000     0.322560000000     0.0702354  
C224     C      0.766900000000     0.269670000000     0.328700000000     0.0342345  
C225     C      0.812840000000     0.271400000000     0.335290000000    -0.0851646  
C226     C      0.858520000000     0.317560000000     0.334760000000     0.0702468  
C227     C      0.814790000000     0.361300000000     0.322630000000     0.0701896  
C228     C      0.768620000000     0.315630000000     0.322100000000    -0.0851345  
C229     C      0.215930000000     0.674540000000     0.322080000000    -0.0851699  
C230     C      0.217670000000     0.720460000000     0.328780000000     0.0342583  
C231     C      0.171740000000     0.718710000000     0.335480000000    -0.0851948  
C232     C      0.126070000000     0.672540000000     0.334930000000     0.0702975  
C233     C      0.169770000000     0.628860000000     0.322600000000     0.0702702  
C234     C      0.266890000000     0.769680000000     0.328790000000     0.0342507  
C235     C      0.312840000000     0.771410000000     0.335390000000    -0.085223   
C236     C      0.358510000000     0.817580000000     0.334850000000     0.070333   
C237     C      0.314780000000     0.861300000000     0.322720000000     0.0702317  
C238     C      0.268610000000     0.815630000000     0.322190000000    -0.0851841  
C239     C      0.973660000000     0.449590000000     0.130130000000    -0.0859424  
C240     C      0.991570000000     0.495000000000     0.145770000000     0.0341554  
C241     C      0.009280000000     0.540310000000     0.130040000000    -0.0855909  
C242     C      0.009150000000     0.539570000000     0.099370000000     0.0704924  
C243     C      0.973470000000     0.450130000000     0.099450000000     0.0701753  
C244     C      0.991790000000     0.495110000000     0.178340000000     0.0341387  
C245     C      0.009690000000     0.467600000000     0.193980000000    -0.0856034  
C246     C      0.009880000000     0.468320000000     0.224660000000     0.070459   
C247     C      0.974190000000     0.522070000000     0.224750000000     0.070038   
C248     C      0.974070000000     0.522690000000     0.194070000000    -0.0859423  
C249     C      0.946690000000     0.976210000000     0.527150000000    -0.0859379  
C250     C      0.992080000000     0.994120000000     0.511500000000     0.0337959  
C251     C      0.037400000000     0.011840000000     0.527210000000    -0.0852547  
C252     C      0.036690000000     0.011730000000     0.557890000000     0.0706265  
C253     C      0.947250000000     0.976020000000     0.557830000000     0.0699361  
C254     C      0.992160000000     0.994330000000     0.478920000000     0.0338283  
C255     C      0.019750000000     0.976630000000     0.463190000000    -0.0856094  
C256     C      0.019120000000     0.976760000000     0.432510000000     0.0702369  
C257     C      0.965350000000     0.012430000000     0.432620000000     0.0703308  
C258     C      0.964640000000     0.012230000000     0.463300000000    -0.0856314  
C259     C      0.812730000000     0.771270000000     0.335180000000    -0.085158   
C260     C      0.766770000000     0.769530000000     0.328600000000     0.03422    
C261     C      0.768490000000     0.815480000000     0.322000000000    -0.0851923  
C262     C      0.814650000000     0.861150000000     0.322500000000     0.0702553  
C263     C      0.858400000000     0.817430000000     0.334620000000     0.0701991  
C264     C      0.717550000000     0.720320000000     0.328640000000     0.0342284  
C265     C      0.715790000000     0.674380000000     0.321960000000    -0.08517    
C266     C      0.669620000000     0.628700000000     0.322530000000     0.0702185  
C267     C      0.625960000000     0.672420000000     0.334850000000     0.0702887  
C268     C      0.671630000000     0.718580000000     0.335360000000    -0.0851963  
C269     C      0.268470000000     0.315530000000     0.322100000000    -0.0851638  
C270     C      0.266730000000     0.269560000000     0.328680000000     0.0342265  
C271     C      0.312670000000     0.271280000000     0.335290000000    -0.0851279  
C272     C      0.358350000000     0.317450000000     0.334780000000     0.0702629  
C273     C      0.314640000000     0.361200000000     0.322660000000     0.0702993  
C274     C      0.217520000000     0.220350000000     0.328640000000     0.0342883  
C275     C      0.171580000000     0.218590000000     0.335330000000    -0.0852151  
C276     C      0.125910000000     0.172420000000     0.334760000000     0.0703231  
C277     C      0.169620000000     0.128760000000     0.322430000000     0.0703482  
C278     C      0.215780000000     0.174430000000     0.321920000000    -0.0852072  
C279     C      0.009130000000     0.040230000000     0.129870000000    -0.0851427  
C280     C      0.991420000000     0.994920000000     0.145590000000     0.033774   
C281     C      0.973530000000     0.949520000000     0.129940000000    -0.0858339  
C282     C      0.973350000000     0.950070000000     0.099260000000     0.070012   
C283     C      0.009020000000     0.039520000000     0.099190000000     0.0706868  
C284     C      0.991620000000     0.995010000000     0.178170000000     0.0338841  
C285     C      0.009530000000     0.967500000000     0.193800000000    -0.0856507  
C286     C      0.009720000000     0.968200000000     0.224470000000     0.0703807  
C287     C      0.974010000000     0.021940000000     0.224580000000     0.0702795  
C288     C      0.973890000000     0.022570000000     0.193900000000    -0.0856156  
Cu1      Cu     0.015560000000     0.971530000000     0.328480000000     0.846301   
Cu2      Cu     0.968730000000     0.018340000000     0.328610000000     0.846318   
Cu3      Cu     0.968880000000     0.518480000000     0.328780000000     0.845864   
Cu4      Cu     0.015700000000     0.471660000000     0.328670000000     0.847006   
Cu5      Cu     0.515690000000     0.971660000000     0.328710000000     0.84563    
Cu6      Cu     0.468870000000     0.018480000000     0.328810000000     0.847034   
Cu7      Cu     0.468740000000     0.518360000000     0.328790000000     0.84643    
Cu8      Cu     0.515540000000     0.471530000000     0.328690000000     0.846266   
Cu9      Cu     0.967600000000     0.947680000000     0.995260000000     0.844182   
Cu10     Cu     0.014410000000     0.041320000000     0.995170000000     0.845715   
Cu11     Cu     0.014460000000     0.541320000000     0.995340000000     0.845719   
Cu12     Cu     0.967640000000     0.447670000000     0.995440000000     0.844421   
Cu13     Cu     0.514440000000     0.041340000000     0.995380000000     0.84541    
Cu14     Cu     0.467600000000     0.947700000000     0.995460000000     0.844679   
Cu15     Cu     0.467640000000     0.447680000000     0.995450000000     0.845201   
Cu16     Cu     0.514460000000     0.541320000000     0.995370000000     0.845199   
Cu17     Cu     0.944890000000     0.970260000000     0.661840000000     0.845602   
Cu18     Cu     0.038540000000     0.017090000000     0.661920000000     0.847208   
Cu19     Cu     0.944910000000     0.470280000000     0.662010000000     0.846022   
Cu20     Cu     0.038550000000     0.517080000000     0.662100000000     0.846702   
Cu21     Cu     0.444920000000     0.970510000000     0.662040000000     0.845799   
Cu22     Cu     0.538560000000     0.017330000000     0.662140000000     0.847084   
Cu23     Cu     0.444910000000     0.470500000000     0.662030000000     0.846432   
Cu24     Cu     0.538550000000     0.517330000000     0.662120000000     0.846299   
H1       H      0.570820000000     0.815470000000     0.674850000000     0.0504472  
H2       H      0.570500000000     0.894580000000     0.673560000000     0.0261777  
H3       H      0.412980000000     0.815820000000     0.650630000000     0.0262355  
H4       H      0.412650000000     0.736400000000     0.649330000000     0.0504696  
H5       H      0.412580000000     0.672320000000     0.674690000000     0.0505005  
H6       H      0.412900000000     0.593220000000     0.673380000000     0.0262198  
H7       H      0.570570000000     0.672060000000     0.650760000000     0.0262119  
H8       H      0.570900000000     0.751480000000     0.649480000000     0.0504654  
H9       H      0.570900000000     0.251480000000     0.649490000000     0.0505188  
H10      H      0.570570000000     0.172060000000     0.650780000000     0.0262287  
H11      H      0.412910000000     0.093230000000     0.673390000000     0.0262764  
H12      H      0.412580000000     0.172320000000     0.674680000000     0.0505191  
H13      H      0.412650000000     0.236390000000     0.649330000000     0.0504846  
H14      H      0.412970000000     0.315810000000     0.650630000000     0.0262304  
H15      H      0.570500000000     0.394580000000     0.673540000000     0.0262241  
H16      H      0.570830000000     0.315480000000     0.674840000000     0.0504644  
H17      H      0.070840000000     0.815280000000     0.674720000000     0.0504225  
H18      H      0.070510000000     0.894370000000     0.673380000000     0.0261815  
H19      H      0.912970000000     0.815560000000     0.650480000000     0.0262271  
H20      H      0.912660000000     0.736140000000     0.649230000000     0.0504463  
H21      H      0.912600000000     0.672110000000     0.674630000000     0.0504611  
H22      H      0.912920000000     0.593010000000     0.673370000000     0.0262247  
H23      H      0.070580000000     0.671810000000     0.650740000000     0.0262246  
H24      H      0.070910000000     0.751240000000     0.649410000000     0.0504252  
H25      H      0.070790000000     0.315200000000     0.674700000000     0.0504415  
H26      H      0.070470000000     0.394300000000     0.673470000000     0.0262197  
H27      H      0.912930000000     0.315580000000     0.650560000000     0.0262463  
H28      H      0.912600000000     0.236160000000     0.649210000000     0.0504589  
H29      H      0.912530000000     0.172050000000     0.674520000000     0.0504684  
H30      H      0.912860000000     0.092960000000     0.673180000000     0.0262839  
H31      H      0.070520000000     0.171810000000     0.650550000000     0.0262528  
H32      H      0.070850000000     0.251240000000     0.649300000000     0.0504439  
H33      H      0.442190000000     0.412840000000     0.849420000000     0.0518133  
H34      H      0.442480000000     0.413510000000     0.902710000000     0.0265334  
H35      H      0.539600000000     0.575020000000     0.902590000000     0.0265284  
H36      H      0.540160000000     0.575400000000     0.849290000000     0.0517537  
H37      H      0.410030000000     0.445010000000     0.808060000000     0.0517901  
H38      H      0.410720000000     0.445320000000     0.754770000000     0.0266027  
H39      H      0.572230000000     0.542450000000     0.754910000000     0.0265702  
H40      H      0.572590000000     0.542980000000     0.808200000000     0.0517846  
H41      H      0.540090000000     0.075400000000     0.849300000000     0.0517241  
H42      H      0.539530000000     0.075030000000     0.902600000000     0.0265315  
H43      H      0.442390000000     0.913520000000     0.902730000000     0.0265627  
H44      H      0.442100000000     0.912830000000     0.849430000000     0.0517128  
H45      H      0.409960000000     0.945010000000     0.808060000000     0.0517293  
H46      H      0.410680000000     0.945320000000     0.754770000000     0.026595   
H47      H      0.572190000000     0.042430000000     0.754930000000     0.026612   
H48      H      0.572530000000     0.042970000000     0.808230000000     0.0517472  
H49      H      0.733530000000     0.415410000000     0.008150000000     0.0506944  
H50      H      0.812940000000     0.415730000000     0.006850000000     0.0265093  
H51      H      0.891710000000     0.573260000000     0.983910000000     0.0260676  
H52      H      0.812610000000     0.573580000000     0.982630000000     0.0501009  
H53      H      0.748620000000     0.573660000000     0.008000000000     0.0506619  
H54      H      0.669190000000     0.573330000000     0.006720000000     0.0265201  
H55      H      0.590350000000     0.415670000000     0.984100000000     0.0261419  
H56      H      0.669450000000     0.415340000000     0.982800000000     0.050122   
H57      H      0.248610000000     0.573670000000     0.008010000000     0.050664   
H58      H      0.169190000000     0.573330000000     0.006710000000     0.0265396  
H59      H      0.090360000000     0.415660000000     0.984100000000     0.0261979  
H60      H      0.169450000000     0.415340000000     0.982810000000     0.0501303  
H61      H      0.233530000000     0.415410000000     0.008160000000     0.0506954  
H62      H      0.312950000000     0.415740000000     0.006860000000     0.0265453  
H63      H      0.391710000000     0.573270000000     0.983950000000     0.0261189  
H64      H      0.312620000000     0.573590000000     0.982660000000     0.0501302  
H65      H      0.942160000000     0.412660000000     0.849420000000     0.0517036  
H66      H      0.942450000000     0.413410000000     0.902720000000     0.0265452  
H67      H      0.039580000000     0.574910000000     0.902540000000     0.0265629  
H68      H      0.040140000000     0.575230000000     0.849240000000     0.0517583  
H69      H      0.910000000000     0.444800000000     0.808040000000     0.0517349  
H70      H      0.910710000000     0.445080000000     0.754750000000     0.0266029  
H71      H      0.072220000000     0.542190000000     0.754890000000     0.0265789  
H72      H      0.072570000000     0.542760000000     0.808180000000     0.0517493  
H73      H      0.733480000000     0.915380000000     0.008000000000     0.0506201  
H74      H      0.812900000000     0.915710000000     0.006650000000     0.026534   
H75      H      0.891640000000     0.073240000000     0.983730000000     0.0260859  
H76      H      0.812530000000     0.073560000000     0.982490000000     0.0500555  
H77      H      0.748590000000     0.073640000000     0.007910000000     0.0506325  
H78      H      0.669160000000     0.073320000000     0.006690000000     0.0265327  
H79      H      0.590280000000     0.915660000000     0.984060000000     0.0261315  
H80      H      0.669370000000     0.915320000000     0.982700000000     0.050031   
H81      H      0.248560000000     0.073710000000     0.007940000000     0.0506459  
H82      H      0.169130000000     0.073360000000     0.006590000000     0.0265362  
H83      H      0.090350000000     0.915700000000     0.983970000000     0.0261923  
H84      H      0.169460000000     0.915390000000     0.982730000000     0.0501101  
H85      H      0.233490000000     0.915460000000     0.008130000000     0.0506535  
H86      H      0.312910000000     0.915780000000     0.006880000000     0.0265443  
H87      H      0.391710000000     0.073320000000     0.983970000000     0.026132   
H88      H      0.312610000000     0.073640000000     0.982630000000     0.0500959  
H89      H      0.072590000000     0.042870000000     0.808000000000     0.0517271  
H90      H      0.072220000000     0.042280000000     0.754700000000     0.0266027  
H91      H      0.910720000000     0.945130000000     0.754570000000     0.0266019  
H92      H      0.910030000000     0.944870000000     0.807870000000     0.0516887  
H93      H      0.040140000000     0.075310000000     0.849080000000     0.0517423  
H94      H      0.039580000000     0.074970000000     0.902370000000     0.0265464  
H95      H      0.942480000000     0.913460000000     0.902530000000     0.0265349  
H96      H      0.942200000000     0.912740000000     0.849240000000     0.0517059  
H97      H      0.541180000000     0.462230000000     0.474720000000     0.0517963  
H98      H      0.540810000000     0.462570000000     0.421420000000     0.02662    
H99      H      0.443700000000     0.526970000000     0.421580000000     0.026611   
H100     H      0.443220000000     0.526850000000     0.474870000000     0.0518086  
H101     H      0.410820000000     0.462020000000     0.515960000000     0.0518093  
H102     H      0.411220000000     0.461890000000     0.569260000000     0.0265946  
H103     H      0.572720000000     0.526270000000     0.569370000000     0.0265822  
H104     H      0.573380000000     0.526600000000     0.516070000000     0.0517964  
H105     H      0.523960000000     0.445950000000     0.182610000000     0.0518711  
H106     H      0.524090000000     0.446440000000     0.235900000000     0.0266217  
H107     H      0.459730000000     0.543580000000     0.236060000000     0.0266202  
H108     H      0.459380000000     0.543940000000     0.182760000000     0.051833   
H109     H      0.459130000000     0.413560000000     0.141520000000     0.0518937  
H110     H      0.459010000000     0.413970000000     0.088220000000     0.026792   
H111     H      0.523410000000     0.575480000000     0.088110000000     0.0267859  
H112     H      0.523740000000     0.576130000000     0.141410000000     0.0518945  
H113     H      0.573480000000     0.026680000000     0.516110000000     0.0518367  
H114     H      0.572790000000     0.026310000000     0.569400000000     0.0266227  
H115     H      0.411280000000     0.961930000000     0.569260000000     0.0265891  
H116     H      0.410920000000     0.962090000000     0.515960000000     0.0517238  
H117     H      0.541310000000     0.962350000000     0.474740000000     0.0517059  
H118     H      0.540970000000     0.962710000000     0.421440000000     0.0265702  
H119     H      0.443850000000     0.027100000000     0.421590000000     0.0266357  
H120     H      0.443340000000     0.026950000000     0.474890000000     0.0518383  
H121     H      0.459180000000     0.913620000000     0.141540000000     0.051834   
H122     H      0.459030000000     0.914010000000     0.088240000000     0.0268084  
H123     H      0.523440000000     0.075520000000     0.088120000000     0.0267773  
H124     H      0.523800000000     0.076190000000     0.141420000000     0.0518512  
H125     H      0.524030000000     0.946030000000     0.182620000000     0.0518246  
H126     H      0.524200000000     0.946540000000     0.235920000000     0.0266018  
H127     H      0.459830000000     0.043680000000     0.236080000000     0.0266386  
H128     H      0.459450000000     0.044010000000     0.182780000000     0.0518567  
H129     H      0.041230000000     0.462180000000     0.474690000000     0.0517914  
H130     H      0.040900000000     0.462580000000     0.421390000000     0.026606   
H131     H      0.943780000000     0.526970000000     0.421570000000     0.0265804  
H132     H      0.943260000000     0.526780000000     0.474870000000     0.051741   
H133     H      0.910850000000     0.461910000000     0.515940000000     0.0517926  
H134     H      0.911230000000     0.461730000000     0.569230000000     0.0265996  
H135     H      0.072730000000     0.526090000000     0.569360000000     0.0265845  
H136     H      0.073410000000     0.526490000000     0.516060000000     0.0517763  
H137     H      0.670730000000     0.252600000000     0.341470000000     0.0504984  
H138     H      0.591630000000     0.173180000000     0.340200000000     0.0262367  
H139     H      0.670380000000     0.094400000000     0.317250000000     0.0262983  
H140     H      0.749800000000     0.173500000000     0.315940000000     0.0504783  
H141     H      0.813890000000     0.237500000000     0.341280000000     0.0504624  
H142     H      0.892980000000     0.316920000000     0.339990000000     0.0261842  
H143     H      0.814150000000     0.395760000000     0.317400000000     0.0262365  
H144     H      0.734720000000     0.316670000000     0.316110000000     0.0504806  
H145     H      0.170710000000     0.752580000000     0.341550000000     0.0505069  
H146     H      0.091620000000     0.673160000000     0.340240000000     0.0262734  
H147     H      0.170400000000     0.594420000000     0.317290000000     0.02624    
H148     H      0.249810000000     0.673520000000     0.316010000000     0.0504922  
H149     H      0.313880000000     0.737510000000     0.341380000000     0.0504938  
H150     H      0.392980000000     0.816940000000     0.340080000000     0.0262095  
H151     H      0.314140000000     0.895770000000     0.317490000000     0.0261989  
H152     H      0.234710000000     0.816670000000     0.316200000000     0.0504861  
H153     H      0.023830000000     0.576270000000     0.141370000000     0.0519045  
H154     H      0.023440000000     0.575560000000     0.088070000000     0.0268103  
H155     H      0.959060000000     0.414050000000     0.088230000000     0.026778   
H156     H      0.959240000000     0.413700000000     0.141520000000     0.051812   
H157     H      0.024120000000     0.446140000000     0.182580000000     0.0518818  
H158     H      0.024290000000     0.446650000000     0.235880000000     0.0266528  
H159     H      0.959900000000     0.543760000000     0.236050000000     0.0265993  
H160     H      0.959520000000     0.544110000000     0.182750000000     0.0517605  
H161     H      0.073360000000     0.026400000000     0.515870000000     0.051784   
H162     H      0.072700000000     0.026030000000     0.569170000000     0.0266116  
H163     H      0.911180000000     0.961610000000     0.569070000000     0.0266085  
H164     H      0.910790000000     0.961770000000     0.515770000000     0.051692   
H165     H      0.041180000000     0.962080000000     0.474500000000     0.0516991  
H166     H      0.040820000000     0.962480000000     0.421200000000     0.0266044  
H167     H      0.943670000000     0.026830000000     0.421410000000     0.0266025  
H168     H      0.943180000000     0.026650000000     0.474700000000     0.0517969  
H169     H      0.734580000000     0.816510000000     0.316020000000     0.0504623  
H170     H      0.814000000000     0.895610000000     0.317270000000     0.0261697  
H171     H      0.892870000000     0.816800000000     0.339840000000     0.0261778  
H172     H      0.813780000000     0.737370000000     0.341170000000     0.0504345  
H173     H      0.749650000000     0.673340000000     0.315880000000     0.0504756  
H174     H      0.670230000000     0.594250000000     0.317230000000     0.0262391  
H175     H      0.591520000000     0.673060000000     0.340180000000     0.0262204  
H176     H      0.670620000000     0.752470000000     0.341420000000     0.050465   
H177     H      0.313710000000     0.237370000000     0.341270000000     0.0504823  
H178     H      0.392810000000     0.316800000000     0.340030000000     0.0262455  
H179     H      0.314000000000     0.395670000000     0.317440000000     0.0262371  
H180     H      0.234580000000     0.316580000000     0.316100000000     0.0505134  
H181     H      0.170550000000     0.252450000000     0.341410000000     0.0505491  
H182     H      0.091450000000     0.173030000000     0.340070000000     0.0262992  
H183     H      0.170250000000     0.094320000000     0.317100000000     0.026297   
H184     H      0.249670000000     0.173430000000     0.315860000000     0.0505468  
H185     H      0.959100000000     0.913630000000     0.141330000000     0.0517586  
H186     H      0.958960000000     0.914010000000     0.088030000000     0.0267903  
H187     H      0.023320000000     0.075520000000     0.087910000000     0.0268     
H188     H      0.023670000000     0.076190000000     0.141210000000     0.0518439  
H189     H      0.023960000000     0.946050000000     0.182400000000     0.0518655  
H190     H      0.024130000000     0.946530000000     0.235690000000     0.0266273  
H191     H      0.959710000000     0.043630000000     0.235880000000     0.0266129  
H192     H      0.959340000000     0.043990000000     0.182580000000     0.051765   
N1       N      0.491740000000     0.861090000000     0.662100000000    -0.192651   
N2       N      0.491730000000     0.626740000000     0.662070000000    -0.19271    
N3       N      0.491740000000     0.126740000000     0.662080000000    -0.192715   
N4       N      0.491740000000     0.361090000000     0.662080000000    -0.192725   
N5       N      0.991740000000     0.860860000000     0.661930000000    -0.192784   
N6       N      0.991750000000     0.626510000000     0.662050000000    -0.192862   
N7       N      0.991700000000     0.360850000000     0.662020000000    -0.192868   
N8       N      0.991690000000     0.126480000000     0.661870000000    -0.192817   
N9       N      0.491040000000     0.494280000000     0.906650000000    -0.1925     
N10      N      0.491490000000     0.493890000000     0.750840000000    -0.192478   
N11      N      0.490960000000     0.994290000000     0.906660000000    -0.192565   
N12      N      0.491450000000     0.993870000000     0.750850000000    -0.192557   
N13      N      0.858220000000     0.494490000000     0.995380000000    -0.193423   
N14      N      0.623870000000     0.494500000000     0.995410000000    -0.193408   
N15      N      0.123870000000     0.494500000000     0.995410000000    -0.193361   
N16      N      0.358230000000     0.494500000000     0.995400000000    -0.193407   
N17      N      0.991010000000     0.494170000000     0.906630000000    -0.19255    
N18      N      0.991470000000     0.493630000000     0.750820000000    -0.192592   
N19      N      0.858170000000     0.994480000000     0.995200000000    -0.193476   
N20      N      0.623820000000     0.994490000000     0.995380000000    -0.193511   
N21      N      0.123840000000     0.994530000000     0.995270000000    -0.193509   
N22      N      0.358210000000     0.994550000000     0.995420000000    -0.193506   
N23      N      0.991480000000     0.993700000000     0.750640000000    -0.1927     
N24      N      0.991020000000     0.994230000000     0.906450000000    -0.19266    
N25      N      0.492250000000     0.494770000000     0.417500000000    -0.192452   
N26      N      0.491960000000     0.494080000000     0.573310000000    -0.192518   
N27      N      0.491920000000     0.495010000000     0.239980000000    -0.192491   
N28      N      0.491200000000     0.494710000000     0.084170000000    -0.192398   
N29      N      0.492020000000     0.994120000000     0.573330000000    -0.192574   
N30      N      0.492400000000     0.994910000000     0.417520000000    -0.19261    
N31      N      0.491220000000     0.994760000000     0.084180000000    -0.19255    
N32      N      0.492030000000     0.995110000000     0.239990000000    -0.192588   
N33      N      0.992340000000     0.494790000000     0.417490000000    -0.192614   
N34      N      0.991970000000     0.493900000000     0.573290000000    -0.192603   
N35      N      0.625100000000     0.127890000000     0.328720000000    -0.192716   
N36      N      0.859470000000     0.362240000000     0.328700000000    -0.192714   
N37      N      0.125110000000     0.627890000000     0.328760000000    -0.192722   
N38      N      0.359460000000     0.862250000000     0.328790000000    -0.192758   
N39      N      0.991250000000     0.494800000000     0.084150000000    -0.192477   
N40      N      0.992100000000     0.495200000000     0.239960000000    -0.192599   
N41      N      0.991940000000     0.993820000000     0.573120000000    -0.192707   
N42      N      0.992240000000     0.994670000000     0.417310000000    -0.192702   
N43      N      0.859330000000     0.862100000000     0.328550000000    -0.192697   
N44      N      0.624970000000     0.627750000000     0.328700000000    -0.192713   
N45      N      0.359300000000     0.362130000000     0.328730000000    -0.192705   
N46      N      0.124950000000     0.127770000000     0.328580000000    -0.192713   
N47      N      0.991140000000     0.994760000000     0.083970000000    -0.192622   
N48      N      0.991930000000     0.995070000000     0.239780000000    -0.192706   
O1       O      0.011470000000     0.972190000000     0.283960000000    -0.397214   
O2       O      0.015080000000     0.975440000000     0.373020000000    -0.397204   
O3       O      0.946630000000     0.907150000000     0.329780000000    -0.397781   
O4       O      0.079920000000     0.040480000000     0.327200000000    -0.397327   
O5       O      0.037660000000     0.082710000000     0.329910000000    -0.397362   
O6       O      0.904360000000     0.949400000000     0.327300000000    -0.397693   
O7       O      0.969360000000     0.014220000000     0.373130000000    -0.397205   
O8       O      0.972660000000     0.017880000000     0.284070000000    -0.397211   
O9       O      0.972830000000     0.518020000000     0.284250000000    -0.397542   
O10      O      0.969490000000     0.514350000000     0.373300000000    -0.397529   
O11      O      0.037820000000     0.582840000000     0.330090000000    -0.397443   
O12      O      0.904510000000     0.449540000000     0.327460000000    -0.39757    
O13      O      0.946760000000     0.407280000000     0.329950000000    -0.397759   
O14      O      0.080060000000     0.540600000000     0.327390000000    -0.397715   
O15      O      0.015190000000     0.475550000000     0.373200000000    -0.397295   
O16      O      0.011620000000     0.472310000000     0.284140000000    -0.397252   
O17      O      0.515220000000     0.975620000000     0.373240000000    -0.397582   
O18      O      0.511580000000     0.972260000000     0.284180000000    -0.397396   
O19      O      0.580060000000     0.040600000000     0.327400000000    -0.397249   
O20      O      0.446750000000     0.907290000000     0.330030000000    -0.3975     
O21      O      0.404500000000     0.949550000000     0.327520000000    -0.39787    
O22      O      0.537810000000     0.082850000000     0.330080000000    -0.397547   
O23      O      0.472780000000     0.017970000000     0.284270000000    -0.397171   
O24      O      0.469520000000     0.014420000000     0.373330000000    -0.397323   
O25      O      0.469370000000     0.514290000000     0.373310000000    -0.397636   
O26      O      0.472660000000     0.517860000000     0.284260000000    -0.397587   
O27      O      0.404360000000     0.449430000000     0.327490000000    -0.397604   
O28      O      0.537690000000     0.582730000000     0.330070000000    -0.397599   
O29      O      0.579920000000     0.540460000000     0.327390000000    -0.39755    
O30      O      0.446600000000     0.407160000000     0.330000000000    -0.39746    
O31      O      0.511440000000     0.472140000000     0.284170000000    -0.397634   
O32      O      0.515060000000     0.475470000000     0.373230000000    -0.397566   
O33      O      0.971650000000     0.952380000000     0.039780000000    -0.396358   
O34      O      0.968130000000     0.952110000000     0.950730000000    -0.397277   
O35      O      0.036550000000     0.952260000000     0.993980000000    -0.397346   
O36      O      0.903230000000     0.952240000000     0.996530000000    -0.397853   
O37      O      0.945460000000     0.036740000000     0.993850000000    -0.397506   
O38      O      0.078790000000     0.036770000000     0.996490000000    -0.397667   
O39      O      0.013830000000     0.036620000000     0.950640000000    -0.396721   
O40      O      0.010430000000     0.036890000000     0.039700000000    -0.395793   
O41      O      0.010520000000     0.536910000000     0.039870000000    -0.396206   
O42      O      0.013840000000     0.536590000000     0.950810000000    -0.397105   
O43      O      0.945520000000     0.536740000000     0.994040000000    -0.397948   
O44      O      0.078830000000     0.536750000000     0.996650000000    -0.398057   
O45      O      0.036580000000     0.452240000000     0.994150000000    -0.397472   
O46      O      0.903270000000     0.452250000000     0.996730000000    -0.397916   
O47      O      0.968140000000     0.452080000000     0.950910000000    -0.397446   
O48      O      0.971720000000     0.452400000000     0.039970000000    -0.39641    
O49      O      0.510500000000     0.036890000000     0.039910000000    -0.396226   
O50      O      0.513810000000     0.036660000000     0.950860000000    -0.397155   
O51      O      0.445500000000     0.036790000000     0.994090000000    -0.397296   
O52      O      0.578800000000     0.036760000000     0.996670000000    -0.397797   
O53      O      0.536530000000     0.952260000000     0.994150000000    -0.397704   
O54      O      0.403240000000     0.952290000000     0.996760000000    -0.397848   
O55      O      0.468090000000     0.952150000000     0.950930000000    -0.39733    
O56      O      0.471690000000     0.952390000000     0.039990000000    -0.396355   
O57      O      0.471700000000     0.452360000000     0.039970000000    -0.396613   
O58      O      0.468160000000     0.452140000000     0.950920000000    -0.397481   
O59      O      0.536580000000     0.452250000000     0.994150000000    -0.397789   
O60      O      0.403270000000     0.452260000000     0.996740000000    -0.398046   
O61      O      0.445520000000     0.536750000000     0.994070000000    -0.39777    
O62      O      0.578830000000     0.536750000000     0.996680000000    -0.398042   
O63      O      0.513870000000     0.536640000000     0.950850000000    -0.397561   
O64      O      0.510500000000     0.536860000000     0.039900000000    -0.396535   
O65      O      0.949480000000     0.905900000000     0.660560000000    -0.397476   
O66      O      0.949450000000     0.039190000000     0.663120000000    -0.397319   
O67      O      0.949580000000     0.974300000000     0.617320000000    -0.397559   
O68      O      0.949350000000     0.970790000000     0.706370000000    -0.397533   
O69      O      0.033850000000     0.016510000000     0.706440000000    -0.397041   
O70      O      0.034080000000     0.013120000000     0.617390000000    -0.397002   
O71      O      0.033960000000     0.081460000000     0.660600000000    -0.397273   
O72      O      0.033980000000     0.948150000000     0.663230000000    -0.397486   
O73      O      0.949470000000     0.405900000000     0.660710000000    -0.397568   
O74      O      0.949490000000     0.539220000000     0.663320000000    -0.397595   
O75      O      0.949600000000     0.474360000000     0.617490000000    -0.397491   
O76      O      0.949350000000     0.470770000000     0.706550000000    -0.397476   
O77      O      0.033850000000     0.516460000000     0.706620000000    -0.397343   
O78      O      0.034100000000     0.513150000000     0.617570000000    -0.397276   
O79      O      0.033990000000     0.581460000000     0.660800000000    -0.3973     
O80      O      0.033960000000     0.448130000000     0.663380000000    -0.397382   
O81      O      0.449490000000     0.906140000000     0.660750000000    -0.397528   
O82      O      0.449490000000     0.039450000000     0.663340000000    -0.397366   
O83      O      0.449630000000     0.974590000000     0.617520000000    -0.397517   
O84      O      0.449340000000     0.971010000000     0.706570000000    -0.397508   
O85      O      0.533850000000     0.016710000000     0.706660000000    -0.397301   
O86      O      0.534140000000     0.013390000000     0.617610000000    -0.397283   
O87      O      0.534000000000     0.081700000000     0.660830000000    -0.39762    
O88      O      0.533990000000     0.948390000000     0.663440000000    -0.397817   
O89      O      0.449490000000     0.406140000000     0.660750000000    -0.397586   
O90      O      0.449480000000     0.539440000000     0.663330000000    -0.397591   
O91      O      0.449600000000     0.474570000000     0.617510000000    -0.397629   
O92      O      0.449360000000     0.471010000000     0.706570000000    -0.397524   
O93      O      0.533870000000     0.516720000000     0.706640000000    -0.39752    
O94      O      0.534100000000     0.513370000000     0.617580000000    -0.397565   
O95      O      0.533990000000     0.581700000000     0.660810000000    -0.397557   
O96      O      0.533980000000     0.448380000000     0.663420000000    -0.397549   


