data_structure

_audit_creation_method RASPA-1.0
_audit_creation_date 2023-5-23
_audit_author_name 'Poobodin Mano'

_cell_length_a    30.4051
_cell_length_b    30.4043
_cell_length_c    60.7041
_cell_angle_alpha 90
_cell_angle_beta  90
_cell_angle_gamma 90
_cell_volume      56117.6

_symmetry_cell_setting          triclinic
_symmetry_space_group_name_Hall 'P 1'
_symmetry_space_group_name_H-M  'P 1'
_symmetry_Int_Tables_number     1

_symmetry_equiv_pos_as_xyz 'x,y,z'

loop_
_atom_site_label
_atom_site_type_symbol
_atom_site_fract_x
_atom_site_fract_y
_atom_site_fract_z
_atom_site_charge
C1       C      0.994690000000     0.994300000000     0.164420000000     0.405469   
C2       C      0.994640000000     0.994340000000     0.076550000000     0.40583    
C3       C      0.994670000000     0.082010000000     0.120490000000     0.405745   
C4       C      0.994660000000     0.906610000000     0.120480000000     0.405793   
C5       C      0.994660000000     0.494370000000     0.076630000000     0.405698   
C6       C      0.994670000000     0.494250000000     0.164500000000     0.405744   
C7       C      0.994640000000     0.406610000000     0.120540000000     0.405797   
C8       C      0.994700000000     0.582010000000     0.120590000000     0.405769   
C9       C      0.494110000000     0.994290000000     0.164480000000     0.405754   
C10      C      0.493880000000     0.994330000000     0.076610000000     0.405769   
C11      C      0.494000000000     0.082000000000     0.120550000000     0.40593    
C12      C      0.493980000000     0.906600000000     0.120540000000     0.405826   
C13      C      0.494080000000     0.494250000000     0.164540000000     0.405603   
C14      C      0.493900000000     0.494360000000     0.076680000000     0.405803   
C15      C      0.494020000000     0.582000000000     0.120630000000     0.405807   
C16      C      0.493960000000     0.406600000000     0.120590000000     0.405798   
C17      C      0.994630000000     0.994690000000     0.913970000000     0.405646   
C18      C      0.994670000000     0.994750000000     0.826100000000     0.405498   
C19      C      0.994620000000     0.082430000000     0.870050000000     0.405868   
C20      C      0.994670000000     0.907030000000     0.870030000000     0.405802   
C21      C      0.994640000000     0.494710000000     0.914050000000     0.405731   
C22      C      0.994640000000     0.494730000000     0.826190000000     0.405488   
C23      C      0.994630000000     0.582430000000     0.870120000000     0.405749   
C24      C      0.994650000000     0.407020000000     0.870110000000     0.405769   
C25      C      0.493880000000     0.994910000000     0.914030000000     0.405751   
C26      C      0.494100000000     0.994940000000     0.826170000000     0.40588    
C27      C      0.494010000000     0.907230000000     0.870090000000     0.405788   
C28      C      0.493960000000     0.082640000000     0.870110000000     0.405795   
C29      C      0.493890000000     0.494930000000     0.914110000000     0.405829   
C30      C      0.494070000000     0.494910000000     0.826250000000     0.405763   
C31      C      0.493960000000     0.582640000000     0.870170000000     0.405816   
C32      C      0.493990000000     0.407230000000     0.870180000000     0.40582    
C33      C      0.994730000000     0.994310000000     0.326110000000     0.405616   
C34      C      0.994670000000     0.994380000000     0.413970000000     0.405733   
C35      C      0.906990000000     0.994320000000     0.370020000000     0.405675   
C36      C      0.082400000000     0.994360000000     0.370050000000     0.405882   
C37      C      0.994600000000     0.494110000000     0.326180000000     0.405572   
C38      C      0.994490000000     0.494130000000     0.414040000000     0.405861   
C39      C      0.906860000000     0.493140000000     0.370040000000     0.406037   
C40      C      0.082230000000     0.495090000000     0.370100000000     0.405849   
C41      C      0.494620000000     0.994310000000     0.326160000000     0.405476   
C42      C      0.494760000000     0.994380000000     0.414030000000     0.40574    
C43      C      0.406990000000     0.994330000000     0.370120000000     0.405601   
C44      C      0.582400000000     0.994350000000     0.370070000000     0.40583    
C45      C      0.494470000000     0.494110000000     0.326210000000     0.405753   
C46      C      0.494610000000     0.494130000000     0.414080000000     0.406261   
C47      C      0.406830000000     0.495310000000     0.370240000000     0.406038   
C48      C      0.582250000000     0.492920000000     0.370170000000     0.406059   
C49      C      0.994700000000     0.994670000000     0.664420000000     0.405568   
C50      C      0.994650000000     0.994570000000     0.576550000000     0.405719   
C51      C      0.082380000000     0.994610000000     0.620470000000     0.405652   
C52      C      0.906970000000     0.994630000000     0.620500000000     0.405728   
C53      C      0.994550000000     0.494510000000     0.664510000000     0.405729   
C54      C      0.994490000000     0.494350000000     0.576640000000     0.405725   
C55      C      0.082200000000     0.493460000000     0.620600000000     0.405891   
C56      C      0.906830000000     0.495400000000     0.620630000000     0.405897   
C57      C      0.494590000000     0.994710000000     0.664480000000     0.405554   
C58      C      0.494750000000     0.994560000000     0.576610000000     0.405703   
C59      C      0.406970000000     0.994650000000     0.620510000000     0.405758   
C60      C      0.582380000000     0.994600000000     0.620570000000     0.405866   
C61      C      0.494450000000     0.494540000000     0.664580000000     0.405857   
C62      C      0.494560000000     0.494340000000     0.576710000000     0.406352   
C63      C      0.406800000000     0.493260000000     0.620560000000     0.405982   
C64      C      0.582230000000     0.495620000000     0.620610000000     0.406115   
C65      C      0.695910000000     0.534870000000     0.625160000000    -0.0850351  
C66      C      0.719920000000     0.496470000000     0.620580000000     0.0342912  
C67      C      0.696250000000     0.457980000000     0.615830000000    -0.085319   
C68      C      0.650370000000     0.458210000000     0.616210000000     0.0703843  
C69      C      0.649950000000     0.534230000000     0.624740000000     0.0701845  
C70      C      0.769130000000     0.496410000000     0.620750000000     0.0342188  
C71      C      0.793190000000     0.534410000000     0.615490000000    -0.0850552  
C72      C      0.839130000000     0.533690000000     0.615880000000     0.0701468  
C73      C      0.838660000000     0.458300000000     0.625690000000     0.0703348  
C74      C      0.792760000000     0.458190000000     0.626120000000    -0.0852388  
C75      C      0.196270000000     0.530700000000     0.626020000000    -0.0852161  
C76      C      0.219890000000     0.492460000000     0.620690000000     0.0342436  
C77      C      0.195840000000     0.454440000000     0.615470000000    -0.0850987  
C78      C      0.149890000000     0.455160000000     0.615870000000     0.0702263  
C79      C      0.150370000000     0.530590000000     0.625600000000     0.070297   
C80      C      0.269110000000     0.492400000000     0.620510000000     0.0343207  
C81      C      0.292780000000     0.530870000000     0.615720000000    -0.0853925  
C82      C      0.338660000000     0.530630000000     0.616100000000     0.0704893  
C83      C      0.339080000000     0.454670000000     0.624710000000     0.0702818  
C84      C      0.293120000000     0.454020000000     0.625130000000    -0.0850884  
C85      C      0.696240000000     0.032850000000     0.625620000000    -0.0851219  
C86      C      0.720070000000     0.994610000000     0.620560000000     0.0341617  
C87      C      0.696240000000     0.956350000000     0.615510000000    -0.0851463  
C88      C      0.650320000000     0.956780000000     0.615910000000     0.0701909  
C89      C      0.650320000000     0.032410000000     0.625240000000     0.070344   
C90      C      0.769280000000     0.994620000000     0.620540000000     0.0341883  
C91      C      0.793090000000     0.032860000000     0.615450000000    -0.0850935  
C92      C      0.839020000000     0.032440000000     0.615830000000     0.0702678  
C93      C      0.839040000000     0.956830000000     0.625220000000     0.0701942  
C94      C      0.793120000000     0.956390000000     0.625620000000    -0.0852016  
C95      C      0.293110000000     0.032880000000     0.615390000000    -0.085054   
C96      C      0.269280000000     0.994640000000     0.620470000000     0.0341652  
C97      C      0.293100000000     0.956410000000     0.625560000000    -0.0851809  
C98      C      0.339030000000     0.956850000000     0.625180000000     0.0701643  
C99      C      0.339030000000     0.032460000000     0.615790000000     0.0702875  
C100     C      0.220070000000     0.994630000000     0.620460000000     0.0341865  
C101     C      0.196240000000     0.032880000000     0.625510000000    -0.0851349  
C102     C      0.150320000000     0.032430000000     0.625130000000     0.070304   
C103     C      0.150320000000     0.956800000000     0.615790000000     0.0701841  
C104     C      0.196250000000     0.956380000000     0.615400000000    -0.0851387  
C105     C      0.485280000000     0.532670000000     0.519680000000    -0.0849888  
C106     C      0.494620000000     0.494220000000     0.507730000000     0.0343188  
C107     C      0.503940000000     0.455800000000     0.519720000000    -0.0849981  
C108     C      0.503010000000     0.456250000000     0.542720000000     0.0705441  
C109     C      0.486170000000     0.532300000000     0.542680000000     0.0704762  
C110     C      0.494640000000     0.494180000000     0.483060000000     0.0343667  
C111     C      0.485320000000     0.455730000000     0.471100000000    -0.0850717  
C112     C      0.486220000000     0.456130000000     0.448100000000     0.070559   
C113     C      0.503070000000     0.532160000000     0.448080000000     0.070596   
C114     C      0.503990000000     0.532600000000     0.471080000000    -0.0850533  
C115     C      0.504930000000     0.032710000000     0.519570000000    -0.0850184  
C116     C      0.494810000000     0.994460000000     0.507640000000     0.034242   
C117     C      0.484680000000     0.956240000000     0.519590000000    -0.0851227  
C118     C      0.485440000000     0.956700000000     0.542590000000     0.0703128  
C119     C      0.504150000000     0.032310000000     0.542570000000     0.0703507  
C120     C      0.494810000000     0.994440000000     0.483000000000     0.0342203  
C121     C      0.484680000000     0.032670000000     0.471050000000    -0.085031   
C122     C      0.485440000000     0.032220000000     0.448050000000     0.0703709  
C123     C      0.504140000000     0.956600000000     0.448070000000     0.0702576  
C124     C      0.504920000000     0.956190000000     0.471070000000    -0.0850868  
C125     C      0.984220000000     0.532390000000     0.471080000000    -0.0851221  
C126     C      0.994460000000     0.494200000000     0.483020000000     0.0342297  
C127     C      0.004690000000     0.455970000000     0.471100000000    -0.0849648  
C128     C      0.003950000000     0.456380000000     0.448090000000     0.0702446  
C129     C      0.984970000000     0.531930000000     0.448070000000     0.0702436  
C130     C      0.994470000000     0.494230000000     0.507660000000     0.0342255  
C131     C      0.004700000000     0.532460000000     0.519580000000    -0.0850038  
C132     C      0.003960000000     0.532070000000     0.542590000000     0.0702947  
C133     C      0.985000000000     0.456510000000     0.542620000000     0.070206   
C134     C      0.984240000000     0.456040000000     0.519610000000    -0.0851002  
C135     C      0.695930000000     0.453670000000     0.365560000000    -0.085051   
C136     C      0.719950000000     0.492060000000     0.370150000000     0.0342777  
C137     C      0.696290000000     0.530550000000     0.374930000000    -0.0853476  
C138     C      0.650400000000     0.530310000000     0.374570000000     0.0704596  
C139     C      0.649970000000     0.454320000000     0.366010000000     0.0702215  
C140     C      0.769160000000     0.492120000000     0.369960000000     0.0342487  
C141     C      0.793230000000     0.454110000000     0.375190000000    -0.0850954  
C142     C      0.839170000000     0.454830000000     0.374790000000     0.0702531  
C143     C      0.838680000000     0.530230000000     0.365020000000     0.0703375  
C144     C      0.792780000000     0.530350000000     0.364600000000    -0.0852911  
C145     C      0.195860000000     0.534120000000     0.375280000000    -0.0850688  
C146     C      0.219920000000     0.496100000000     0.370060000000     0.034273   
C147     C      0.196310000000     0.457880000000     0.364710000000    -0.0852847  
C148     C      0.150420000000     0.457990000000     0.365110000000     0.070379   
C149     C      0.149910000000     0.533400000000     0.374870000000     0.0701682  
C150     C      0.269140000000     0.496170000000     0.370260000000     0.0342968  
C151     C      0.293150000000     0.534560000000     0.365660000000    -0.0850423  
C152     C      0.339110000000     0.533910000000     0.366090000000     0.0701851  
C153     C      0.338690000000     0.457930000000     0.374670000000     0.0705334  
C154     C      0.292810000000     0.457690000000     0.375040000000    -0.0853992  
C155     C      0.984520000000     0.032680000000     0.470990000000    -0.0850536  
C156     C      0.994640000000     0.994450000000     0.482940000000     0.0341669  
C157     C      0.004770000000     0.956200000000     0.471010000000    -0.0850382  
C158     C      0.004000000000     0.956600000000     0.448010000000     0.0703386  
C159     C      0.985290000000     0.032220000000     0.447990000000     0.0703402  
C160     C      0.994640000000     0.994480000000     0.507580000000     0.0341585  
C161     C      0.004760000000     0.032740000000     0.519510000000    -0.0849557  
C162     C      0.003990000000     0.032340000000     0.542510000000     0.070403   
C163     C      0.985290000000     0.956720000000     0.542530000000     0.0702733  
C164     C      0.984520000000     0.956260000000     0.519530000000    -0.0851094  
C165     C      0.793130000000     0.032550000000     0.364940000000    -0.0851154  
C166     C      0.769300000000     0.994320000000     0.370020000000     0.0341816  
C167     C      0.793120000000     0.956080000000     0.375100000000    -0.0851548  
C168     C      0.839050000000     0.956500000000     0.374700000000     0.0701856  
C169     C      0.839050000000     0.032120000000     0.365330000000     0.0702578  
C170     C      0.720090000000     0.994340000000     0.370030000000     0.0341875  
C171     C      0.696280000000     0.032590000000     0.375100000000    -0.0850916  
C172     C      0.650350000000     0.032170000000     0.374720000000     0.0702242  
C173     C      0.650330000000     0.956540000000     0.365370000000     0.0702111  
C174     C      0.696260000000     0.956100000000     0.364980000000    -0.0851599  
C175     C      0.293130000000     0.032580000000     0.365040000000    -0.0851426  
C176     C      0.269300000000     0.994350000000     0.370120000000     0.0341841  
C177     C      0.293120000000     0.956110000000     0.375200000000    -0.0851438  
C178     C      0.339050000000     0.956530000000     0.374820000000     0.070218   
C179     C      0.339060000000     0.032140000000     0.365440000000     0.0702703  
C180     C      0.220090000000     0.994350000000     0.370110000000     0.0341957  
C181     C      0.196260000000     0.032610000000     0.375160000000    -0.0851415  
C182     C      0.150340000000     0.032180000000     0.374750000000     0.0703237  
C183     C      0.150350000000     0.956550000000     0.365400000000     0.0701613  
C184     C      0.196270000000     0.956120000000     0.365030000000    -0.0851847  
C185     C      0.455600000000     0.503650000000     0.769180000000    -0.0866804  
C186     C      0.494220000000     0.494780000000     0.757560000000     0.0344669  
C187     C      0.532800000000     0.485970000000     0.769240000000    -0.0867051  
C188     C      0.532310000000     0.486700000000     0.792240000000     0.0702388  
C189     C      0.455990000000     0.503020000000     0.792190000000     0.0702333  
C190     C      0.494280000000     0.494720000000     0.733280000000     0.0343709  
C191     C      0.485980000000     0.533400000000     0.721590000000    -0.0866406  
C192     C      0.486710000000     0.532890000000     0.698590000000     0.0702556  
C193     C      0.502030000000     0.456370000000     0.698650000000     0.0702659  
C194     C      0.502640000000     0.455970000000     0.721650000000    -0.0866526  
C195     C      0.455670000000     0.003780000000     0.769090000000    -0.0865347  
C196     C      0.494290000000     0.994860000000     0.757460000000     0.0343107  
C197     C      0.532850000000     0.985980000000     0.769150000000    -0.0866056  
C198     C      0.532340000000     0.986690000000     0.792160000000     0.0701522  
C199     C      0.456050000000     0.003130000000     0.792100000000     0.0702536  
C200     C      0.494360000000     0.994820000000     0.733180000000     0.0343278  
C201     C      0.503310000000     0.956220000000     0.721540000000    -0.086591   
C202     C      0.502700000000     0.956620000000     0.698540000000     0.0701559  
C203     C      0.486270000000     0.032910000000     0.698490000000     0.0702595  
C204     C      0.485510000000     0.033390000000     0.721500000000    -0.086543   
C205     C      0.532230000000     0.793360000000     0.875210000000    -0.0851586  
C206     C      0.493990000000     0.769540000000     0.870130000000     0.0342722  
C207     C      0.455770000000     0.793360000000     0.865030000000    -0.0852345  
C208     C      0.456210000000     0.839290000000     0.865400000000     0.070225   
C209     C      0.531810000000     0.839290000000     0.874810000000     0.0701871  
C210     C      0.493980000000     0.720330000000     0.870140000000     0.0342631  
C211     C      0.532230000000     0.696490000000     0.865100000000    -0.0852346  
C212     C      0.531790000000     0.650570000000     0.865500000000     0.0702358  
C213     C      0.456150000000     0.650590000000     0.874820000000     0.0702521  
C214     C      0.455720000000     0.696520000000     0.875200000000    -0.0852015  
C215     C      0.455710000000     0.196500000000     0.875190000000    -0.0852034  
C216     C      0.493970000000     0.220330000000     0.870150000000     0.0342673  
C217     C      0.532210000000     0.196510000000     0.865090000000    -0.0851902  
C218     C      0.531780000000     0.150580000000     0.865460000000     0.0701932  
C219     C      0.456140000000     0.150570000000     0.874780000000     0.070292   
C220     C      0.493980000000     0.269540000000     0.870160000000     0.0342668  
C221     C      0.455750000000     0.293370000000     0.865080000000    -0.08522    
C222     C      0.456190000000     0.339300000000     0.865470000000     0.0702232  
C223     C      0.531790000000     0.339280000000     0.874880000000     0.0702138  
C224     C      0.532210000000     0.293360000000     0.875250000000    -0.0851643  
C225     C      0.956030000000     0.503560000000     0.769140000000    -0.0866519  
C226     C      0.994620000000     0.494670000000     0.757490000000     0.0343422  
C227     C      0.033220000000     0.485820000000     0.769140000000    -0.0865361  
C228     C      0.032780000000     0.486520000000     0.792150000000     0.0702041  
C229     C      0.956480000000     0.502900000000     0.792150000000     0.070174   
C230     C      0.994610000000     0.494630000000     0.733200000000     0.0343708  
C231     C      0.986060000000     0.533280000000     0.721530000000    -0.0866353  
C232     C      0.986720000000     0.532800000000     0.698530000000     0.0701484  
C233     C      0.002440000000     0.456350000000     0.698560000000     0.0702579  
C234     C      0.003130000000     0.455940000000     0.721570000000    -0.0866048  
C235     C      0.985800000000     0.033320000000     0.721450000000    -0.0865136  
C236     C      0.994710000000     0.994740000000     0.733120000000     0.0342347  
C237     C      0.003620000000     0.956150000000     0.721470000000    -0.086454   
C238     C      0.002940000000     0.956560000000     0.698460000000     0.0701642  
C239     C      0.986490000000     0.032860000000     0.698440000000     0.0702135  
C240     C      0.994700000000     0.994760000000     0.757400000000     0.034211   
C241     C      0.033280000000     0.985860000000     0.769070000000    -0.0864784  
C242     C      0.032830000000     0.986550000000     0.792070000000     0.0702361  
C243     C      0.956540000000     0.002980000000     0.792060000000     0.0702326  
C244     C      0.956110000000     0.003660000000     0.769060000000    -0.0865033  
C245     C      0.032910000000     0.793160000000     0.875130000000    -0.0851735  
C246     C      0.994660000000     0.769330000000     0.870060000000     0.0341994  
C247     C      0.956430000000     0.793160000000     0.864980000000    -0.0852317  
C248     C      0.956870000000     0.839080000000     0.865350000000     0.0702216  
C249     C      0.032480000000     0.839080000000     0.874720000000     0.0703458  
C250     C      0.994650000000     0.720120000000     0.870080000000     0.0341912  
C251     C      0.032880000000     0.696290000000     0.865020000000    -0.0851288  
C252     C      0.032440000000     0.650360000000     0.865420000000     0.0702934  
C253     C      0.956820000000     0.650380000000     0.874780000000     0.0702155  
C254     C      0.956400000000     0.696310000000     0.875160000000    -0.0851731  
C255     C      0.032880000000     0.293150000000     0.875170000000    -0.0850856  
C256     C      0.994640000000     0.269330000000     0.870100000000     0.0341855  
C257     C      0.956400000000     0.293170000000     0.865030000000    -0.0852071  
C258     C      0.956840000000     0.339090000000     0.865420000000     0.0702238  
C259     C      0.032460000000     0.339080000000     0.874790000000     0.0702734  
C260     C      0.994630000000     0.220130000000     0.870090000000     0.0341548  
C261     C      0.032860000000     0.196300000000     0.865010000000    -0.0850989  
C262     C      0.032430000000     0.150380000000     0.865380000000     0.070266   
C263     C      0.956810000000     0.150370000000     0.874750000000     0.0702018  
C264     C      0.956380000000     0.196290000000     0.875150000000    -0.0851505  
C265     C      0.455610000000     0.485330000000     0.221600000000    -0.0866337  
C266     C      0.494240000000     0.494150000000     0.233230000000     0.0344294  
C267     C      0.532810000000     0.502990000000     0.221560000000    -0.0866426  
C268     C      0.532320000000     0.502350000000     0.198560000000     0.070188   
C269     C      0.455990000000     0.486040000000     0.198600000000     0.0701744  
C270     C      0.494300000000     0.494130000000     0.257510000000     0.0344098  
C271     C      0.502660000000     0.532850000000     0.269160000000    -0.0866861  
C272     C      0.502050000000     0.532380000000     0.292170000000     0.0702601  
C273     C      0.486730000000     0.455860000000     0.292170000000     0.0702181  
C274     C      0.485990000000     0.455420000000     0.269170000000    -0.0866398  
C275     C      0.532070000000     0.504920000000     0.971150000000    -0.0851046  
C276     C      0.493830000000     0.494740000000     0.983070000000     0.0343117  
C277     C      0.455600000000     0.484660000000     0.971120000000    -0.0851235  
C278     C      0.456040000000     0.485520000000     0.948120000000     0.0703125  
C279     C      0.531660000000     0.504230000000     0.948150000000     0.0703172  
C280     C      0.493830000000     0.494610000000     0.007720000000     0.0343832  
C281     C      0.532080000000     0.484420000000     0.019630000000    -0.0852039  
C282     C      0.531660000000     0.485100000000     0.042640000000     0.0703623  
C283     C      0.456050000000     0.503820000000     0.042670000000     0.0703234  
C284     C      0.455600000000     0.504690000000     0.019670000000    -0.0851899  
C285     C      0.455700000000     0.985370000000     0.221550000000    -0.0865349  
C286     C      0.494320000000     0.994280000000     0.233180000000     0.0343112  
C287     C      0.532860000000     0.003190000000     0.221490000000    -0.0865093  
C288     C      0.532350000000     0.002510000000     0.198480000000     0.0702429  
C289     C      0.456060000000     0.986050000000     0.198540000000     0.0701271  
C290     C      0.494390000000     0.994280000000     0.257460000000     0.0342917  
C291     C      0.503340000000     0.032870000000     0.269110000000    -0.086458   
C292     C      0.502750000000     0.032440000000     0.292120000000     0.0702204  
C293     C      0.486290000000     0.956150000000     0.292140000000     0.070143   
C294     C      0.485530000000     0.955700000000     0.269130000000    -0.0865725  
C295     C      0.455570000000     0.004610000000     0.019600000000    -0.084962   
C296     C      0.493800000000     0.994560000000     0.007640000000     0.0341786  
C297     C      0.532050000000     0.984370000000     0.019560000000    -0.0850628  
C298     C      0.531640000000     0.985050000000     0.042560000000     0.070221   
C299     C      0.456020000000     0.003750000000     0.042600000000     0.070345   
C300     C      0.493800000000     0.994690000000     0.983000000000     0.0342772  
C301     C      0.455570000000     0.984630000000     0.971050000000    -0.0851247  
C302     C      0.456020000000     0.985490000000     0.948040000000     0.0702598  
C303     C      0.531630000000     0.004200000000     0.948080000000     0.0703733  
C304     C      0.532040000000     0.004880000000     0.971080000000    -0.0850445  
C305     C      0.532250000000     0.695870000000     0.115520000000    -0.0851624  
C306     C      0.494010000000     0.719700000000     0.120600000000     0.0342446  
C307     C      0.455790000000     0.695870000000     0.125700000000    -0.0851779  
C308     C      0.456230000000     0.649950000000     0.125330000000     0.0702171  
C309     C      0.531830000000     0.649940000000     0.115920000000     0.0702     
C310     C      0.494000000000     0.768900000000     0.120580000000     0.0342167  
C311     C      0.532250000000     0.792750000000     0.125620000000    -0.0851735  
C312     C      0.531810000000     0.838670000000     0.125220000000     0.070201   
C313     C      0.456170000000     0.838650000000     0.115900000000     0.0702465  
C314     C      0.455750000000     0.792720000000     0.115530000000    -0.0851046  
C315     C      0.455750000000     0.195860000000     0.125650000000    -0.0851889  
C316     C      0.493970000000     0.219700000000     0.120550000000     0.0342438  
C317     C      0.532200000000     0.195880000000     0.115460000000    -0.0851441  
C318     C      0.531790000000     0.149950000000     0.115850000000     0.070198   
C319     C      0.456190000000     0.149940000000     0.125260000000     0.070237   
C320     C      0.493960000000     0.268900000000     0.120560000000     0.0342572  
C321     C      0.455700000000     0.292730000000     0.115520000000    -0.0851688  
C322     C      0.456130000000     0.338660000000     0.115910000000     0.0702186  
C323     C      0.531770000000     0.338650000000     0.125240000000     0.0702253  
C324     C      0.532210000000     0.292730000000     0.125610000000    -0.0852241  
C325     C      0.003190000000     0.532790000000     0.269140000000    -0.0866189  
C326     C      0.994670000000     0.494120000000     0.257480000000     0.0343641  
C327     C      0.986130000000     0.455440000000     0.269130000000    -0.0866939  
C328     C      0.986790000000     0.455890000000     0.292140000000     0.0701977  
C329     C      0.002490000000     0.532330000000     0.292140000000     0.0703038  
C330     C      0.994670000000     0.494130000000     0.233200000000     0.0342992  
C331     C      0.956080000000     0.485290000000     0.221540000000    -0.0866055  
C332     C      0.956520000000     0.486010000000     0.198530000000     0.070172   
C333     C      0.032830000000     0.502370000000     0.198540000000     0.0702313  
C334     C      0.033270000000     0.503010000000     0.221540000000    -0.0865568  
C335     C      0.956410000000     0.504630000000     0.019610000000    -0.0850925  
C336     C      0.994650000000     0.494530000000     0.007660000000     0.0342014  
C337     C      0.032890000000     0.484380000000     0.019590000000    -0.0849982  
C338     C      0.032460000000     0.485090000000     0.042600000000     0.0703619  
C339     C      0.956850000000     0.503800000000     0.042610000000     0.0702982  
C340     C      0.994650000000     0.494590000000     0.983020000000     0.0342542  
C341     C      0.956400000000     0.484500000000     0.971080000000    -0.0851157  
C342     C      0.956830000000     0.485320000000     0.948080000000     0.0702586  
C343     C      0.032450000000     0.504010000000     0.948080000000     0.0703336  
C344     C      0.032880000000     0.504740000000     0.971090000000    -0.0850275  
C345     C      0.003640000000     0.032860000000     0.269060000000    -0.0863968  
C346     C      0.994740000000     0.994270000000     0.257400000000     0.0342118  
C347     C      0.985840000000     0.955690000000     0.269070000000    -0.0865794  
C348     C      0.986520000000     0.956140000000     0.292070000000     0.0701494  
C349     C      0.002960000000     0.032440000000     0.292060000000     0.0702272  
C350     C      0.994730000000     0.994270000000     0.233120000000     0.0342262  
C351     C      0.956140000000     0.985360000000     0.221460000000    -0.0866011  
C352     C      0.956560000000     0.986050000000     0.198460000000     0.0701386  
C353     C      0.032850000000     0.002510000000     0.198450000000     0.0703247  
C354     C      0.033310000000     0.003180000000     0.221450000000    -0.0864363  
C355     C      0.032860000000     0.004710000000     0.971010000000    -0.0849189  
C356     C      0.994620000000     0.994550000000     0.982940000000     0.0341118  
C357     C      0.956380000000     0.984450000000     0.970990000000    -0.0850344  
C358     C      0.956810000000     0.985280000000     0.947990000000     0.0702398  
C359     C      0.032430000000     0.003990000000     0.948010000000     0.0703571  
C360     C      0.994620000000     0.994480000000     0.007580000000     0.034167   
C361     C      0.032860000000     0.984330000000     0.019510000000    -0.0850618  
C362     C      0.032430000000     0.985040000000     0.042510000000     0.0703585  
C363     C      0.956820000000     0.003740000000     0.042530000000     0.0703578  
C364     C      0.956380000000     0.004560000000     0.019530000000    -0.0849984  
C365     C      0.032910000000     0.792760000000     0.125580000000    -0.0850975  
C366     C      0.994680000000     0.768910000000     0.120520000000     0.0341525  
C367     C      0.956430000000     0.792730000000     0.115450000000    -0.0851455  
C368     C      0.956850000000     0.838650000000     0.115820000000     0.0702015  
C369     C      0.032470000000     0.838680000000     0.125180000000     0.0702985  
C370     C      0.994690000000     0.719710000000     0.120550000000     0.0341822  
C371     C      0.032940000000     0.695880000000     0.115490000000    -0.0851245  
C372     C      0.032510000000     0.649950000000     0.115890000000     0.0703296  
C373     C      0.956900000000     0.649960000000     0.125260000000     0.0702024  
C374     C      0.956460000000     0.695880000000     0.125630000000    -0.085184   
C375     C      0.956420000000     0.195870000000     0.125570000000    -0.0851645  
C376     C      0.994650000000     0.219710000000     0.120500000000     0.0341663  
C377     C      0.032890000000     0.195890000000     0.115420000000    -0.0850748  
C378     C      0.032470000000     0.149960000000     0.115810000000     0.0703079  
C379     C      0.956860000000     0.149950000000     0.125180000000     0.0702013  
C380     C      0.994640000000     0.268910000000     0.120500000000     0.0341808  
C381     C      0.956390000000     0.292740000000     0.115440000000    -0.0851756  
C382     C      0.956820000000     0.338670000000     0.115840000000     0.0702048  
C383     C      0.032440000000     0.338660000000     0.125200000000     0.0703203  
C384     C      0.032880000000     0.292740000000     0.125580000000    -0.0851538  
Cu1      Cu     0.035200000000     0.994290000000     0.120480000000     0.845993   
Cu2      Cu     0.954130000000     0.994330000000     0.120490000000     0.84603    
Cu3      Cu     0.035200000000     0.494280000000     0.120560000000     0.846175   
Cu4      Cu     0.954130000000     0.494340000000     0.120560000000     0.84586    
Cu5      Cu     0.534530000000     0.994280000000     0.120520000000     0.846219   
Cu6      Cu     0.453450000000     0.994320000000     0.120570000000     0.845964   
Cu7      Cu     0.534520000000     0.494270000000     0.120590000000     0.846249   
Cu8      Cu     0.453450000000     0.494330000000     0.120630000000     0.846072   
Cu9      Cu     0.035180000000     0.994760000000     0.870040000000     0.846131   
Cu10     Cu     0.954110000000     0.994700000000     0.870030000000     0.845799   
Cu11     Cu     0.035170000000     0.494750000000     0.870120000000     0.846263   
Cu12     Cu     0.954100000000     0.494710000000     0.870120000000     0.846056   
Cu13     Cu     0.453450000000     0.994910000000     0.870070000000     0.845886   
Cu14     Cu     0.534520000000     0.994960000000     0.870120000000     0.846156   
Cu15     Cu     0.534510000000     0.494960000000     0.870200000000     0.846182   
Cu16     Cu     0.453440000000     0.494910000000     0.870160000000     0.846186   
Cu17     Cu     0.994730000000     0.953800000000     0.370050000000     0.84588    
Cu18     Cu     0.994670000000     0.034880000000     0.370030000000     0.846177   
Cu19     Cu     0.994970000000     0.453580000000     0.370110000000     0.8459     
Cu20     Cu     0.994130000000     0.534650000000     0.370110000000     0.846133   
Cu21     Cu     0.494720000000     0.953810000000     0.370110000000     0.845793   
Cu22     Cu     0.494670000000     0.034880000000     0.370090000000     0.846265   
Cu23     Cu     0.493820000000     0.453550000000     0.370150000000     0.846866   
Cu24     Cu     0.495270000000     0.534690000000     0.370150000000     0.847015   
Cu25     Cu     0.994650000000     0.954090000000     0.620490000000     0.845808   
Cu26     Cu     0.994700000000     0.035160000000     0.620470000000     0.845942   
Cu27     Cu     0.994100000000     0.453900000000     0.620590000000     0.846074   
Cu28     Cu     0.994930000000     0.534960000000     0.620560000000     0.845938   
Cu29     Cu     0.494700000000     0.035170000000     0.620530000000     0.846198   
Cu30     Cu     0.494650000000     0.954090000000     0.620560000000     0.845919   
Cu31     Cu     0.493800000000     0.535010000000     0.620620000000     0.846805   
Cu32     Cu     0.495230000000     0.453870000000     0.620660000000     0.846767   
H1       H      0.712780000000     0.427650000000     0.611550000000     0.0505874  
H2       H      0.633650000000     0.427600000000     0.612480000000     0.0262056  
H3       H      0.632840000000     0.564650000000     0.628410000000     0.0261825  
H4       H      0.712230000000     0.565330000000     0.629410000000     0.0505169  
H5       H      0.776910000000     0.564600000000     0.610740000000     0.0505992  
H6       H      0.856260000000     0.563830000000     0.611670000000     0.0263175  
H7       H      0.855360000000     0.427940000000     0.629900000000     0.0262557  
H8       H      0.776180000000     0.428200000000     0.630920000000     0.0505366  
H9       H      0.212110000000     0.424230000000     0.610750000000     0.0506201  
H10      H      0.132770000000     0.425000000000     0.611690000000     0.0263056  
H11      H      0.133670000000     0.560970000000     0.629790000000     0.0262802  
H12      H      0.212860000000     0.560710000000     0.630790000000     0.0505263  
H13      H      0.276240000000     0.561170000000     0.611400000000     0.0506141  
H14      H      0.355380000000     0.561240000000     0.612340000000     0.0261897  
H15      H      0.356190000000     0.424260000000     0.628420000000     0.0261728  
H16      H      0.276790000000     0.423580000000     0.629410000000     0.0505314  
H17      H      0.712700000000     0.926140000000     0.610950000000     0.0506179  
H18      H      0.633410000000     0.926420000000     0.611900000000     0.0263291  
H19      H      0.633410000000     0.062780000000     0.629260000000     0.0262776  
H20      H      0.712700000000     0.063070000000     0.630180000000     0.0505164  
H21      H      0.776630000000     0.063060000000     0.610880000000     0.0506112  
H22      H      0.855920000000     0.062790000000     0.611790000000     0.0263047  
H23      H      0.855960000000     0.926480000000     0.629250000000     0.0263151  
H24      H      0.776680000000     0.926190000000     0.630210000000     0.0505525  
H25      H      0.276650000000     0.926210000000     0.630140000000     0.0505395  
H26      H      0.355930000000     0.926500000000     0.629230000000     0.0263103  
H27      H      0.355940000000     0.062810000000     0.611760000000     0.0263247  
H28      H      0.276650000000     0.063080000000     0.610800000000     0.0506054  
H29      H      0.212690000000     0.063090000000     0.630080000000     0.0505584  
H30      H      0.133410000000     0.062790000000     0.629150000000     0.0263193  
H31      H      0.133420000000     0.926440000000     0.611780000000     0.0263226  
H32      H      0.212710000000     0.926170000000     0.610840000000     0.0506061  
H33      H      0.512580000000     0.425380000000     0.511550000000     0.0504972  
H34      H      0.510370000000     0.425760000000     0.551210000000     0.0260002  
H35      H      0.478800000000     0.562820000000     0.551140000000     0.0260261  
H36      H      0.476650000000     0.563060000000     0.511480000000     0.0504958  
H37      H      0.476680000000     0.425340000000     0.479290000000     0.0505307  
H38      H      0.478850000000     0.425610000000     0.439630000000     0.0260026  
H39      H      0.510440000000     0.562670000000     0.439590000000     0.0260031  
H40      H      0.512630000000     0.563010000000     0.479260000000     0.0505095  
H41      H      0.475550000000     0.926020000000     0.511360000000     0.0506387  
H42      H      0.477390000000     0.926350000000     0.551070000000     0.0263415  
H43      H      0.512180000000     0.062680000000     0.551030000000     0.0263304  
H44      H      0.514070000000     0.062910000000     0.511320000000     0.0506214  
H45      H      0.475560000000     0.062880000000     0.479290000000     0.0506402  
H46      H      0.477400000000     0.062570000000     0.439580000000     0.026327   
H47      H      0.512160000000     0.926230000000     0.439600000000     0.0263613  
H48      H      0.514050000000     0.925990000000     0.479320000000     0.0506275  
H49      H      0.013890000000     0.425800000000     0.479360000000     0.0506523  
H50      H      0.012090000000     0.426040000000     0.439630000000     0.026406   
H51      H      0.976840000000     0.562260000000     0.439600000000     0.0263651  
H52      H      0.975010000000     0.562570000000     0.479320000000     0.0506528  
H53      H      0.013900000000     0.562620000000     0.511320000000     0.0506765  
H54      H      0.012090000000     0.562410000000     0.551040000000     0.0263858  
H55      H      0.976870000000     0.426190000000     0.551100000000     0.0263619  
H56      H      0.975040000000     0.425850000000     0.511380000000     0.0506514  
H57      H      0.712830000000     0.560860000000     0.379230000000     0.0506007  
H58      H      0.633700000000     0.560920000000     0.378320000000     0.0261842  
H59      H      0.632850000000     0.423910000000     0.362320000000     0.0261797  
H60      H      0.712250000000     0.423220000000     0.361290000000     0.0505224  
H61      H      0.776960000000     0.423910000000     0.379940000000     0.0506006  
H62      H      0.856300000000     0.424680000000     0.378980000000     0.0262906  
H63      H      0.855380000000     0.560610000000     0.360810000000     0.0262557  
H64      H      0.776190000000     0.560340000000     0.359820000000     0.0505621  
H65      H      0.212910000000     0.427880000000     0.359930000000     0.0505422  
H66      H      0.133720000000     0.427610000000     0.360900000000     0.0262727  
H67      H      0.132780000000     0.563550000000     0.379050000000     0.0263155  
H68      H      0.212120000000     0.564320000000     0.380030000000     0.0506064  
H69      H      0.276830000000     0.565010000000     0.361390000000     0.0505219  
H70      H      0.356230000000     0.564320000000     0.362400000000     0.0261934  
H71      H      0.355400000000     0.427320000000     0.378420000000     0.026171   
H72      H      0.276270000000     0.427380000000     0.379340000000     0.0506174  
H73      H      0.013900000000     0.926010000000     0.479260000000     0.0506643  
H74      H      0.012050000000     0.926240000000     0.439550000000     0.0263562  
H75      H      0.977250000000     0.062570000000     0.439510000000     0.0263359  
H76      H      0.975380000000     0.062890000000     0.479220000000     0.0506321  
H77      H      0.013890000000     0.062930000000     0.511260000000     0.0506621  
H78      H      0.012030000000     0.062710000000     0.550970000000     0.0263574  
H79      H      0.977260000000     0.926370000000     0.551010000000     0.0263392  
H80      H      0.975390000000     0.926040000000     0.511300000000     0.050616   
H81      H      0.776670000000     0.925880000000     0.379680000000     0.0506104  
H82      H      0.855960000000     0.926150000000     0.378730000000     0.0263117  
H83      H      0.855960000000     0.062470000000     0.361290000000     0.0263066  
H84      H      0.776680000000     0.062760000000     0.360370000000     0.0505428  
H85      H      0.712740000000     0.062790000000     0.379660000000     0.0506373  
H86      H      0.633450000000     0.062530000000     0.378740000000     0.0263317  
H87      H      0.633420000000     0.926180000000     0.361350000000     0.0262921  
H88      H      0.712700000000     0.925880000000     0.360400000000     0.0505063  
H89      H      0.276660000000     0.925910000000     0.379780000000     0.0506161  
H90      H      0.355950000000     0.926170000000     0.378850000000     0.0263232  
H91      H      0.355970000000     0.062490000000     0.361410000000     0.0262994  
H92      H      0.276690000000     0.062780000000     0.360460000000     0.0505569  
H93      H      0.212710000000     0.062810000000     0.379730000000     0.0506386  
H94      H      0.133420000000     0.062540000000     0.378760000000     0.0263159  
H95      H      0.133440000000     0.926200000000     0.361380000000     0.0263329  
H96      H      0.212730000000     0.925910000000     0.360470000000     0.0505526  
H97      H      0.563240000000     0.479060000000     0.760630000000     0.0528278  
H98      H      0.562960000000     0.479940000000     0.800720000000     0.0264985  
H99      H      0.425300000000     0.509820000000     0.800630000000     0.0264962  
H100     H      0.425190000000     0.510510000000     0.760530000000     0.0528174  
H101     H      0.479480000000     0.563940000000     0.730200000000     0.0527953  
H102     H      0.480370000000     0.563630000000     0.690110000000     0.0264761  
H103     H      0.508420000000     0.425590000000     0.690210000000     0.0264794  
H104     H      0.509100000000     0.425480000000     0.730310000000     0.0528039  
H105     H      0.563290000000     0.979040000000     0.760550000000     0.0527651  
H106     H      0.562980000000     0.979880000000     0.800640000000     0.0265059  
H107     H      0.425370000000     0.009960000000     0.800530000000     0.0265123  
H108     H      0.425280000000     0.010700000000     0.760440000000     0.0527837  
H109     H      0.510210000000     0.925810000000     0.730190000000     0.0527435  
H110     H      0.509550000000     0.925950000000     0.690100000000     0.0265037  
H111     H      0.479480000000     0.063560000000     0.690010000000     0.0265035  
H112     H      0.478550000000     0.063830000000     0.730100000000     0.0527696  
H113     H      0.425580000000     0.776910000000     0.860440000000     0.0505658  
H114     H      0.425870000000     0.856190000000     0.861350000000     0.026293   
H115     H      0.562150000000     0.856200000000     0.878850000000     0.0263204  
H116     H      0.562420000000     0.776910000000     0.879810000000     0.0506134  
H117     H      0.562440000000     0.712940000000     0.860540000000     0.0505635  
H118     H      0.562150000000     0.633660000000     0.861490000000     0.0263002  
H119     H      0.425780000000     0.633690000000     0.878830000000     0.0263077  
H120     H      0.425510000000     0.712980000000     0.879750000000     0.0506353  
H121     H      0.562430000000     0.212960000000     0.860540000000     0.0505476  
H122     H      0.562140000000     0.133680000000     0.861440000000     0.0263144  
H123     H      0.425770000000     0.133660000000     0.878790000000     0.026316   
H124     H      0.425500000000     0.212950000000     0.879750000000     0.0506404  
H125     H      0.425560000000     0.276930000000     0.860480000000     0.050565   
H126     H      0.425850000000     0.356210000000     0.861430000000     0.0263011  
H127     H      0.562140000000     0.356190000000     0.878920000000     0.0263196  
H128     H      0.562400000000     0.276890000000     0.879840000000     0.0506105  
H129     H      0.063640000000     0.478900000000     0.760510000000     0.0527815  
H130     H      0.063450000000     0.479730000000     0.800610000000     0.0265195  
H131     H      0.925820000000     0.509710000000     0.800610000000     0.0265097  
H132     H      0.925600000000     0.510450000000     0.760520000000     0.0528029  
H133     H      0.979430000000     0.563780000000     0.730150000000     0.0527729  
H134     H      0.980180000000     0.563500000000     0.690060000000     0.0265039  
H135     H      0.008960000000     0.425610000000     0.690120000000     0.0265119  
H136     H      0.009780000000     0.425480000000     0.730210000000     0.0528265  
H137     H      0.010550000000     0.925730000000     0.730100000000     0.0527439  
H138     H      0.009760000000     0.925900000000     0.690010000000     0.0265392  
H139     H      0.979660000000     0.063500000000     0.689980000000     0.0264949  
H140     H      0.978870000000     0.063740000000     0.730070000000     0.0527592  
H141     H      0.063710000000     0.978930000000     0.760440000000     0.0527165  
H142     H      0.063490000000     0.979720000000     0.800530000000     0.0264921  
H143     H      0.925880000000     0.009800000000     0.800520000000     0.026524   
H144     H      0.925690000000     0.010590000000     0.760430000000     0.0527541  
H145     H      0.926230000000     0.776700000000     0.860410000000     0.0505538  
H146     H      0.926520000000     0.855990000000     0.861310000000     0.0263002  
H147     H      0.062840000000     0.856000000000     0.878750000000     0.0263096  
H148     H      0.063100000000     0.776710000000     0.879710000000     0.0506527  
H149     H      0.063090000000     0.712730000000     0.860440000000     0.0505386  
H150     H      0.062800000000     0.633450000000     0.861400000000     0.026294   
H151     H      0.926460000000     0.633480000000     0.878810000000     0.0263068  
H152     H      0.926200000000     0.712780000000     0.879720000000     0.0506197  
H153     H      0.926200000000     0.276720000000     0.860450000000     0.0505498  
H154     H      0.926490000000     0.356000000000     0.861400000000     0.0262951  
H155     H      0.062810000000     0.355980000000     0.878820000000     0.0263116  
H156     H      0.063080000000     0.276690000000     0.879740000000     0.0506214  
H157     H      0.063070000000     0.212750000000     0.860440000000     0.0505391  
H158     H      0.062780000000     0.133470000000     0.861350000000     0.02632    
H159     H      0.926450000000     0.133460000000     0.878760000000     0.0263266  
H160     H      0.926180000000     0.212750000000     0.879720000000     0.0506188  
H161     H      0.563260000000     0.509860000000     0.230180000000     0.0527934  
H162     H      0.562970000000     0.509130000000     0.190080000000     0.0265189  
H163     H      0.425300000000     0.479280000000     0.190150000000     0.026524   
H164     H      0.425200000000     0.478440000000     0.230250000000     0.0527974  
H165     H      0.509130000000     0.563360000000     0.260530000000     0.0528293  
H166     H      0.508450000000     0.563140000000     0.300630000000     0.0264778  
H167     H      0.480380000000     0.425100000000     0.300630000000     0.0264779  
H168     H      0.479490000000     0.424900000000     0.260540000000     0.0527922  
H169     H      0.425390000000     0.475500000000     0.979350000000     0.0506421  
H170     H      0.425700000000     0.477500000000     0.939640000000     0.0263241  
H171     H      0.562020000000     0.512300000000     0.939700000000     0.0263328  
H172     H      0.562270000000     0.514030000000     0.979410000000     0.050628   
H173     H      0.562270000000     0.475310000000     0.011380000000     0.0506852  
H174     H      0.562020000000     0.477010000000     0.051090000000     0.0263265  
H175     H      0.425710000000     0.511830000000     0.051150000000     0.0263199  
H176     H      0.425400000000     0.513860000000     0.011440000000     0.050671   
H177     H      0.563310000000     0.010120000000     0.230090000000     0.0527636  
H178     H      0.562980000000     0.009340000000     0.190000000000     0.0265169  
H179     H      0.425380000000     0.979230000000     0.190110000000     0.0264907  
H180     H      0.425300000000     0.978430000000     0.230200000000     0.0527207  
H181     H      0.510250000000     0.063290000000     0.260470000000     0.0527309  
H182     H      0.509600000000     0.063100000000     0.300560000000     0.0264921  
H183     H      0.479500000000     0.925490000000     0.300600000000     0.0265065  
H184     H      0.478570000000     0.925280000000     0.260510000000     0.0527532  
H185     H      0.562250000000     0.975280000000     0.011300000000     0.0506045  
H186     H      0.562000000000     0.976980000000     0.051020000000     0.0263608  
H187     H      0.425670000000     0.011750000000     0.051090000000     0.0263623  
H188     H      0.425350000000     0.013770000000     0.011370000000     0.0506178  
H189     H      0.425360000000     0.975460000000     0.979270000000     0.0506348  
H190     H      0.425670000000     0.977480000000     0.939560000000     0.0263338  
H191     H      0.562000000000     0.012270000000     0.939630000000     0.0263511  
H192     H      0.562240000000     0.013980000000     0.979340000000     0.0506475  
H193     H      0.425590000000     0.712330000000     0.130290000000     0.0505293  
H194     H      0.425880000000     0.633040000000     0.129380000000     0.02631    
H195     H      0.562170000000     0.633030000000     0.111890000000     0.0263141  
H196     H      0.562440000000     0.712320000000     0.110930000000     0.0506248  
H197     H      0.562460000000     0.776300000000     0.130190000000     0.0505353  
H198     H      0.562170000000     0.855580000000     0.129230000000     0.0262977  
H199     H      0.425800000000     0.855550000000     0.111890000000     0.0263039  
H200     H      0.425530000000     0.776250000000     0.110970000000     0.0505763  
H201     H      0.562390000000     0.212340000000     0.110870000000     0.0506182  
H202     H      0.562130000000     0.133050000000     0.111800000000     0.0263235  
H203     H      0.425850000000     0.133030000000     0.129300000000     0.0263067  
H204     H      0.425550000000     0.212310000000     0.130240000000     0.0505456  
H205     H      0.425490000000     0.276280000000     0.110960000000     0.0506275  
H206     H      0.425760000000     0.355570000000     0.111910000000     0.0263165  
H207     H      0.562130000000     0.355560000000     0.129250000000     0.0263093  
H208     H      0.562420000000     0.276280000000     0.130170000000     0.0505637  
H209     H      0.979500000000     0.424970000000     0.260500000000     0.0528185  
H210     H      0.980250000000     0.425160000000     0.300590000000     0.0264885  
H211     H      0.009010000000     0.563050000000     0.300600000000     0.0265075  
H212     H      0.009830000000     0.563270000000     0.260510000000     0.0528206  
H213     H      0.925650000000     0.478380000000     0.230160000000     0.0527833  
H214     H      0.925850000000     0.479230000000     0.190070000000     0.0265098  
H215     H      0.063490000000     0.509170000000     0.190080000000     0.0265116  
H216     H      0.063690000000     0.509900000000     0.230170000000     0.0527966  
H217     H      0.063090000000     0.475260000000     0.011340000000     0.050628   
H218     H      0.062820000000     0.477030000000     0.051060000000     0.0263341  
H219     H      0.926490000000     0.511830000000     0.051080000000     0.0263375  
H220     H      0.926210000000     0.513790000000     0.011370000000     0.0506293  
H221     H      0.926200000000     0.475350000000     0.979320000000     0.0506405  
H222     H      0.926470000000     0.477300000000     0.939610000000     0.0263453  
H223     H      0.062800000000     0.512070000000     0.939620000000     0.0263335  
H224     H      0.063090000000     0.513850000000     0.979330000000     0.0506396  
H225     H      0.978910000000     0.925270000000     0.260440000000     0.0527359  
H226     H      0.979700000000     0.925490000000     0.300530000000     0.0264982  
H227     H      0.009780000000     0.063100000000     0.300520000000     0.0265435  
H228     H      0.010570000000     0.063280000000     0.260430000000     0.0527482  
H229     H      0.925730000000     0.978420000000     0.230090000000     0.052751   
H230     H      0.925900000000     0.979230000000     0.190000000000     0.0265066  
H231     H      0.063510000000     0.009340000000     0.189990000000     0.0265131  
H232     H      0.063730000000     0.010120000000     0.230080000000     0.0527546  
H233     H      0.926170000000     0.975300000000     0.979230000000     0.0505835  
H234     H      0.926460000000     0.977260000000     0.939520000000     0.0263395  
H235     H      0.062780000000     0.012050000000     0.939540000000     0.0263744  
H236     H      0.063060000000     0.013820000000     0.979260000000     0.0506448  
H237     H      0.063060000000     0.975220000000     0.011260000000     0.0506277  
H238     H      0.062790000000     0.976990000000     0.050980000000     0.0263408  
H239     H      0.926460000000     0.011750000000     0.051000000000     0.0263387  
H240     H      0.926170000000     0.013710000000     0.011290000000     0.0506265  
H241     H      0.926230000000     0.776260000000     0.110880000000     0.0506016  
H242     H      0.926490000000     0.855560000000     0.111790000000     0.0263172  
H243     H      0.062830000000     0.855600000000     0.129200000000     0.0262988  
H244     H      0.063120000000     0.776310000000     0.130160000000     0.0505245  
H245     H      0.063130000000     0.712330000000     0.110900000000     0.0506308  
H246     H      0.062870000000     0.633040000000     0.111870000000     0.0263001  
H247     H      0.926540000000     0.633050000000     0.129300000000     0.0263076  
H248     H      0.926250000000     0.712340000000     0.130200000000     0.0505264  
H249     H      0.063090000000     0.212350000000     0.110840000000     0.0506091  
H250     H      0.062830000000     0.133060000000     0.111780000000     0.0263158  
H251     H      0.926510000000     0.133040000000     0.129210000000     0.0263135  
H252     H      0.926210000000     0.212320000000     0.130150000000     0.0505284  
H253     H      0.926190000000     0.276290000000     0.110870000000     0.0506335  
H254     H      0.926460000000     0.355580000000     0.111830000000     0.0263173  
H255     H      0.062800000000     0.355560000000     0.129230000000     0.0262879  
H256     H      0.063080000000     0.276280000000     0.130150000000     0.0505592  
N1       N      0.627340000000     0.496080000000     0.620520000000    -0.192761   
N2       N      0.861710000000     0.495810000000     0.620730000000    -0.19269    
N3       N      0.127320000000     0.493050000000     0.620680000000    -0.192699   
N4       N      0.361680000000     0.492790000000     0.620450000000    -0.192762   
N5       N      0.627500000000     0.994600000000     0.620580000000    -0.192764   
N6       N      0.861850000000     0.994640000000     0.620520000000    -0.192713   
N7       N      0.361850000000     0.994660000000     0.620490000000    -0.192711   
N8       N      0.127500000000     0.994610000000     0.620470000000    -0.192702   
N9       N      0.494580000000     0.494290000000     0.554120000000    -0.192844   
N10      N      0.494640000000     0.494140000000     0.436670000000    -0.192887   
N11      N      0.494780000000     0.994520000000     0.554010000000    -0.192705   
N12      N      0.494780000000     0.994400000000     0.436630000000    -0.192693   
N13      N      0.994470000000     0.494150000000     0.436650000000    -0.192592   
N14      N      0.994480000000     0.494310000000     0.554030000000    -0.192586   
N15      N      0.627380000000     0.492460000000     0.370250000000    -0.192709   
N16      N      0.861740000000     0.492710000000     0.369960000000    -0.192745   
N17      N      0.127350000000     0.495510000000     0.370030000000    -0.192694   
N18      N      0.361710000000     0.495770000000     0.370340000000    -0.192757   
N19      N      0.994650000000     0.994400000000     0.436570000000    -0.192731   
N20      N      0.994640000000     0.994540000000     0.553950000000    -0.192732   
N21      N      0.861870000000     0.994310000000     0.370020000000    -0.192706   
N22      N      0.627520000000     0.994350000000     0.370050000000    -0.192725   
N23      N      0.361870000000     0.994330000000     0.370130000000    -0.192704   
N24      N      0.127520000000     0.994370000000     0.370070000000    -0.192729   
N25      N      0.494120000000     0.494880000000     0.803640000000    -0.192607   
N26      N      0.494400000000     0.494600000000     0.687190000000    -0.192622   
N27      N      0.494160000000     0.994920000000     0.803560000000    -0.192625   
N28      N      0.494520000000     0.994750000000     0.687080000000    -0.192676   
N29      N      0.494010000000     0.862110000000     0.870100000000    -0.19268    
N30      N      0.493960000000     0.627760000000     0.870160000000    -0.192703   
N31      N      0.493950000000     0.127760000000     0.870110000000    -0.192699   
N32      N      0.493990000000     0.362110000000     0.870180000000    -0.19269    
N33      N      0.994630000000     0.494720000000     0.803580000000    -0.192574   
N34      N      0.994570000000     0.494550000000     0.687110000000    -0.192696   
N35      N      0.994710000000     0.994700000000     0.687020000000    -0.192686   
N36      N      0.994680000000     0.994760000000     0.803500000000    -0.192707   
N37      N      0.994680000000     0.861900000000     0.870030000000    -0.192706   
N38      N      0.994630000000     0.627560000000     0.870110000000    -0.1927     
N39      N      0.994650000000     0.361900000000     0.870110000000    -0.192734   
N40      N      0.994620000000     0.127550000000     0.870060000000    -0.192723   
N41      N      0.494130000000     0.494210000000     0.187150000000    -0.192537   
N42      N      0.494420000000     0.494120000000     0.303600000000    -0.192606   
N43      N      0.493860000000     0.494900000000     0.936710000000    -0.192679   
N44      N      0.493870000000     0.494420000000     0.054080000000    -0.192695   
N45      N      0.494170000000     0.994290000000     0.187080000000    -0.1927     
N46      N      0.494560000000     0.994300000000     0.303560000000    -0.192655   
N47      N      0.493840000000     0.994370000000     0.054010000000    -0.192687   
N48      N      0.493840000000     0.994870000000     0.936630000000    -0.192699   
N49      N      0.494030000000     0.627130000000     0.120630000000    -0.192641   
N50      N      0.493980000000     0.861470000000     0.120550000000    -0.192662   
N51      N      0.493990000000     0.127130000000     0.120550000000    -0.19266    
N52      N      0.493950000000     0.361470000000     0.120580000000    -0.192642   
N53      N      0.994630000000     0.494110000000     0.303570000000    -0.192618   
N54      N      0.994670000000     0.494210000000     0.187100000000    -0.192696   
N55      N      0.994660000000     0.494420000000     0.054030000000    -0.19271    
N56      N      0.994640000000     0.494690000000     0.936650000000    -0.192686   
N57      N      0.994740000000     0.994290000000     0.303500000000    -0.192589   
N58      N      0.994700000000     0.994290000000     0.187020000000    -0.192691   
N59      N      0.994620000000     0.994660000000     0.936570000000    -0.1927     
N60      N      0.994630000000     0.994370000000     0.053950000000    -0.192773   
N61      N      0.994660000000     0.861480000000     0.120490000000    -0.192698   
N62      N      0.994710000000     0.627140000000     0.120580000000    -0.192705   
N63      N      0.994670000000     0.127140000000     0.120490000000    -0.192689   
N64      N      0.994630000000     0.361480000000     0.120530000000    -0.192699   
O1       O      0.031250000000     0.996680000000     0.153860000000    -0.397358   
O2       O      0.031200000000     0.991860000000     0.087090000000    -0.397323   
O3       O      0.031230000000     0.060950000000     0.119260000000    -0.397307   
O4       O      0.031220000000     0.927660000000     0.121700000000    -0.397512   
O5       O      0.958100000000     0.927670000000     0.119260000000    -0.397437   
O6       O      0.958110000000     0.060960000000     0.121720000000    -0.397499   
O7       O      0.958090000000     0.996790000000     0.087110000000    -0.397467   
O8       O      0.958120000000     0.991920000000     0.153870000000    -0.39741    
O9       O      0.031220000000     0.491880000000     0.087180000000    -0.39734    
O10      O      0.031230000000     0.496630000000     0.153950000000    -0.397389   
O11      O      0.031200000000     0.427650000000     0.121760000000    -0.397566   
O12      O      0.031250000000     0.560940000000     0.119360000000    -0.397427   
O13      O      0.958130000000     0.560970000000     0.121810000000    -0.397517   
O14      O      0.958080000000     0.427680000000     0.119320000000    -0.39738    
O15      O      0.958110000000     0.491900000000     0.153950000000    -0.397412   
O16      O      0.958100000000     0.496820000000     0.087180000000    -0.397377   
O17      O      0.530640000000     0.996670000000     0.153900000000    -0.397584   
O18      O      0.530470000000     0.991850000000     0.087140000000    -0.397369   
O19      O      0.530550000000     0.060940000000     0.119300000000    -0.397471   
O20      O      0.530550000000     0.927650000000     0.121740000000    -0.397551   
O21      O      0.457420000000     0.927660000000     0.119340000000    -0.39746    
O22      O      0.457440000000     0.060950000000     0.121800000000    -0.397503   
O23      O      0.457350000000     0.996780000000     0.087180000000    -0.397395   
O24      O      0.457520000000     0.991920000000     0.153950000000    -0.397454   
O25      O      0.530620000000     0.496620000000     0.153970000000    -0.397527   
O26      O      0.530480000000     0.491870000000     0.087210000000    -0.39744    
O27      O      0.530570000000     0.560930000000     0.119390000000    -0.397479   
O28      O      0.530530000000     0.427640000000     0.121800000000    -0.397562   
O29      O      0.457400000000     0.427670000000     0.119390000000    -0.397412   
O30      O      0.457450000000     0.560960000000     0.121870000000    -0.397513   
O31      O      0.457360000000     0.496810000000     0.087250000000    -0.397429   
O32      O      0.457490000000     0.491900000000     0.154010000000    -0.397433   
O33      O      0.031190000000     0.997170000000     0.903420000000    -0.397349   
O34      O      0.031230000000     0.992380000000     0.836660000000    -0.397389   
O35      O      0.031190000000     0.061390000000     0.868830000000    -0.397455   
O36      O      0.031230000000     0.928090000000     0.871260000000    -0.397321   
O37      O      0.958110000000     0.928070000000     0.868800000000    -0.397578   
O38      O      0.958070000000     0.061360000000     0.871270000000    -0.397429   
O39      O      0.958100000000     0.997110000000     0.836650000000    -0.397425   
O40      O      0.958070000000     0.992230000000     0.903420000000    -0.397248   
O41      O      0.031200000000     0.497180000000     0.903500000000    -0.39736    
O42      O      0.031200000000     0.492360000000     0.836740000000    -0.397446   
O43      O      0.031190000000     0.561380000000     0.868900000000    -0.397515   
O44      O      0.031210000000     0.428090000000     0.871340000000    -0.397342   
O45      O      0.958090000000     0.428070000000     0.868890000000    -0.397507   
O46      O      0.958070000000     0.561360000000     0.871340000000    -0.397457   
O47      O      0.958070000000     0.497100000000     0.836740000000    -0.397414   
O48      O      0.958080000000     0.492260000000     0.903500000000    -0.397423   
O49      O      0.457340000000     0.992450000000     0.903460000000    -0.397269   
O50      O      0.457510000000     0.997310000000     0.836690000000    -0.397593   
O51      O      0.457440000000     0.928280000000     0.868850000000    -0.397453   
O52      O      0.457400000000     0.061570000000     0.871310000000    -0.397344   
O53      O      0.530530000000     0.061590000000     0.868900000000    -0.397473   
O54      O      0.530560000000     0.928300000000     0.871340000000    -0.397438   
O55      O      0.530630000000     0.992570000000     0.836740000000    -0.397685   
O56      O      0.530460000000     0.997390000000     0.903500000000    -0.39743    
O57      O      0.530470000000     0.497400000000     0.903580000000    -0.397431   
O58      O      0.530610000000     0.492560000000     0.836820000000    -0.39756    
O59      O      0.530530000000     0.561590000000     0.868970000000    -0.397521   
O60      O      0.530550000000     0.428300000000     0.871420000000    -0.397396   
O61      O      0.457430000000     0.428280000000     0.868940000000    -0.397565   
O62      O      0.457400000000     0.561570000000     0.871380000000    -0.397423   
O63      O      0.457490000000     0.497290000000     0.836780000000    -0.397556   
O64      O      0.457350000000     0.492480000000     0.903540000000    -0.397456   
O65      O      0.992350000000     0.957750000000     0.336660000000    -0.397415   
O66      O      0.997140000000     0.957810000000     0.403430000000    -0.397427   
O67      O      0.928070000000     0.957760000000     0.371260000000    -0.397302   
O68      O      0.061360000000     0.957800000000     0.368830000000    -0.39757    
O69      O      0.061330000000     0.030920000000     0.371270000000    -0.397329   
O70      O      0.928040000000     0.030880000000     0.368790000000    -0.397449   
O71      O      0.992200000000     0.030930000000     0.403410000000    -0.397376   
O72      O      0.997090000000     0.030880000000     0.336650000000    -0.397509   
O73      O      0.992540000000     0.457520000000     0.336730000000    -0.397425   
O74      O      0.997350000000     0.457600000000     0.403500000000    -0.397432   
O75      O      0.928260000000     0.456790000000     0.371330000000    -0.397309   
O76      O      0.061540000000     0.458320000000     0.368870000000    -0.397626   
O77      O      0.060820000000     0.531440000000     0.371370000000    -0.397317   
O78      O      0.927550000000     0.529900000000     0.368830000000    -0.397753   
O79      O      0.991660000000     0.530660000000     0.403490000000    -0.397468   
O80      O      0.996630000000     0.530690000000     0.336730000000    -0.397533   
O81      O      0.492270000000     0.957750000000     0.336720000000    -0.397263   
O82      O      0.497210000000     0.957810000000     0.403490000000    -0.397375   
O83      O      0.428060000000     0.957770000000     0.371350000000    -0.397306   
O84      O      0.561350000000     0.957790000000     0.368860000000    -0.397538   
O85      O      0.561330000000     0.030910000000     0.371290000000    -0.397368   
O86      O      0.428040000000     0.030900000000     0.368890000000    -0.397417   
O87      O      0.492280000000     0.030930000000     0.403470000000    -0.397386   
O88      O      0.497020000000     0.030880000000     0.336710000000    -0.397363   
O89      O      0.492600000000     0.457520000000     0.336760000000    -0.397762   
O90      O      0.494480000000     0.457470000000     0.403550000000    -0.397674   
O91      O      0.427370000000     0.458420000000     0.370850000000    -0.398542   
O92      O      0.560700000000     0.456570000000     0.369490000000    -0.396916   
O93      O      0.561720000000     0.529810000000     0.370790000000    -0.398611   
O94      O      0.428380000000     0.531660000000     0.369540000000    -0.396867   
O95      O      0.494710000000     0.530780000000     0.403540000000    -0.397829   
O96      O      0.496380000000     0.530710000000     0.336760000000    -0.397722   
O97      O      0.997070000000     0.958100000000     0.653880000000    -0.397384   
O98      O      0.992190000000     0.958020000000     0.587110000000    -0.397398   
O99      O      0.061310000000     0.958050000000     0.619260000000    -0.397295   
O100     O      0.928020000000     0.958070000000     0.621730000000    -0.397504   
O101     O      0.928040000000     0.031190000000     0.619260000000    -0.3973     
O102     O      0.061330000000     0.031180000000     0.621690000000    -0.39734    
O103     O      0.997120000000     0.031140000000     0.587090000000    -0.397378   
O104     O      0.992320000000     0.031230000000     0.653860000000    -0.39726    
O105     O      0.996590000000     0.457910000000     0.653970000000    -0.397463   
O106     O      0.991660000000     0.457840000000     0.587210000000    -0.397446   
O107     O      0.060800000000     0.457110000000     0.619340000000    -0.3973     
O108     O      0.927530000000     0.458630000000     0.621870000000    -0.397634   
O109     O      0.928230000000     0.531740000000     0.619330000000    -0.397376   
O110     O      0.061500000000     0.530230000000     0.621810000000    -0.397625   
O111     O      0.997330000000     0.530900000000     0.587170000000    -0.397323   
O112     O      0.992480000000     0.531070000000     0.653940000000    -0.397503   
O113     O      0.492250000000     0.031250000000     0.653910000000    -0.397461   
O114     O      0.497200000000     0.031130000000     0.587150000000    -0.397351   
O115     O      0.428040000000     0.031210000000     0.619270000000    -0.397306   
O116     O      0.561330000000     0.031170000000     0.621780000000    -0.397468   
O117     O      0.561310000000     0.958050000000     0.619360000000    -0.397488   
O118     O      0.428010000000     0.958090000000     0.621760000000    -0.397514   
O119     O      0.492260000000     0.958010000000     0.587170000000    -0.397282   
O120     O      0.496980000000     0.958120000000     0.653940000000    -0.397352   
O121     O      0.492580000000     0.531120000000     0.654010000000    -0.397735   
O122     O      0.494440000000     0.531020000000     0.587220000000    -0.3977     
O123     O      0.427340000000     0.530140000000     0.619930000000    -0.398526   
O124     O      0.560680000000     0.531980000000     0.621270000000    -0.396863   
O125     O      0.561680000000     0.458740000000     0.620010000000    -0.398616   
O126     O      0.428350000000     0.456900000000     0.621280000000    -0.396805   
O127     O      0.494660000000     0.457710000000     0.587260000000    -0.39777    
O128     O      0.496350000000     0.457930000000     0.654060000000    -0.397737   


