data_structure

_audit_creation_method RASPA-1.0
_audit_creation_date 2023-5-23
_audit_author_name 'Poobodin Mano'

_cell_length_a    60.7018
_cell_length_b    60.7035
_cell_length_c    30.4066
_cell_angle_alpha 90
_cell_angle_beta  90
_cell_angle_gamma 90
_cell_volume      112043

_symmetry_cell_setting          triclinic
_symmetry_space_group_name_Hall 'P 1'
_symmetry_space_group_name_H-M  'P 1'
_symmetry_Int_Tables_number     1

_symmetry_equiv_pos_as_xyz 'x,y,z'

loop_
_atom_site_label
_atom_site_type_symbol
_atom_site_fract_x
_atom_site_fract_y
_atom_site_fract_z
_atom_site_charge
C1       C      0.369910000000     0.913530000000     0.995430000000     0.405817   
C2       C      0.369890000000     0.825670000000     0.995910000000     0.405649   
C3       C      0.369960000000     0.869730000000     0.083410000000     0.405628   
C4       C      0.369830000000     0.869550000000     0.908000000000     0.40561    
C5       C      0.369840000000     0.826790000000     0.495850000000     0.40549    
C6       C      0.369990000000     0.914650000000     0.495520000000     0.405873   
C7       C      0.369960000000     0.870640000000     0.408010000000     0.405821   
C8       C      0.369870000000     0.870740000000     0.583420000000     0.405752   
C9       C      0.369960000000     0.076110000000     0.992780000000     0.405906   
C10      C      0.370040000000     0.163970000000     0.992530000000     0.405495   
C11      C      0.369930000000     0.120030000000     0.904900000000     0.40558    
C12      C      0.370030000000     0.120110000000     0.080310000000     0.406027   
C13      C      0.369970000000     0.077240000000     0.492820000000     0.405822   
C14      C      0.369730000000     0.165110000000     0.492480000000     0.405662   
C15      C      0.369940000000     0.121070000000     0.404910000000     0.405903   
C16      C      0.369800000000     0.121210000000     0.580310000000     0.40573    
C17      C      0.913870000000     0.620530000000     0.994600000000     0.405581   
C18      C      0.826000000000     0.620470000000     0.994610000000     0.405563   
C19      C      0.869930000000     0.620490000000     0.082310000000     0.405577   
C20      C      0.869940000000     0.620510000000     0.906910000000     0.405638   
C21      C      0.825980000000     0.620470000000     0.494680000000     0.405586   
C22      C      0.913850000000     0.620480000000     0.494530000000     0.405597   
C23      C      0.869880000000     0.620490000000     0.406910000000     0.405938   
C24      C      0.869950000000     0.620470000000     0.582310000000     0.405586   
C25      C      0.076450000000     0.620570000000     0.994380000000     0.405995   
C26      C      0.164310000000     0.620490000000     0.994430000000     0.405931   
C27      C      0.120380000000     0.620530000000     0.906680000000     0.405843   
C28      C      0.120380000000     0.620550000000     0.082080000000     0.405776   
C29      C      0.076430000000     0.620540000000     0.494300000000     0.405631   
C30      C      0.164300000000     0.620650000000     0.494490000000     0.405592   
C31      C      0.120400000000     0.620580000000     0.406680000000     0.40578    
C32      C      0.120330000000     0.620600000000     0.582080000000     0.405589   
C33      C      0.620400000000     0.076350000000     0.994280000000     0.405675   
C34      C      0.620380000000     0.164220000000     0.994320000000     0.405503   
C35      C      0.620870000000     0.120350000000     0.906610000000     0.405591   
C36      C      0.619920000000     0.120320000000     0.081990000000     0.405871   
C37      C      0.620390000000     0.076620000000     0.494390000000     0.406122   
C38      C      0.620440000000     0.164500000000     0.494170000000     0.405835   
C39      C      0.619820000000     0.120440000000     0.406580000000     0.40578    
C40      C      0.620990000000     0.120540000000     0.582010000000     0.406178   
C41      C      0.620380000000     0.913750000000     0.994660000000     0.405999   
C42      C      0.620340000000     0.825890000000     0.994740000000     0.405552   
C43      C      0.620860000000     0.869800000000     0.082390000000     0.405901   
C44      C      0.619860000000     0.869770000000     0.907010000000     0.405849   
C45      C      0.620360000000     0.914000000000     0.494650000000     0.406094   
C46      C      0.620380000000     0.826120000000     0.494780000000     0.405744   
C47      C      0.619760000000     0.870140000000     0.582420000000     0.406137   
C48      C      0.620970000000     0.870090000000     0.406990000000     0.405814   
C49      C      0.326050000000     0.369150000000     0.994440000000     0.405595   
C50      C      0.413920000000     0.369860000000     0.994280000000     0.405689   
C51      C      0.370270000000     0.325630000000     0.993920000000     0.405696   
C52      C      0.369680000000     0.413490000000     0.994700000000     0.405569   
C53      C      0.326040000000     0.371260000000     0.494000000000     0.405703   
C54      C      0.413900000000     0.370360000000     0.493820000000     0.405904   
C55      C      0.369600000000     0.326820000000     0.493450000000     0.405551   
C56      C      0.370340000000     0.414680000000     0.494290000000     0.406117   
C57      C      0.326000000000     0.620100000000     0.995230000000     0.405701   
C58      C      0.413860000000     0.620000000000     0.995410000000     0.405993   
C59      C      0.369970000000     0.663970000000     0.995520000000     0.405452   
C60      C      0.369870000000     0.576100000000     0.995210000000     0.405714   
C61      C      0.325980000000     0.621040000000     0.495260000000     0.405713   
C62      C      0.413850000000     0.621280000000     0.495510000000     0.405745   
C63      C      0.369790000000     0.665110000000     0.495630000000     0.405643   
C64      C      0.370070000000     0.577250000000     0.495220000000     0.405811   
C65      C      0.664380000000     0.369720000000     0.994130000000     0.405592   
C66      C      0.576510000000     0.369920000000     0.994300000000     0.405873   
C67      C      0.620350000000     0.325890000000     0.994230000000     0.405684   
C68      C      0.620530000000     0.413750000000     0.994290000000     0.405543   
C69      C      0.620510000000     0.326170000000     0.493930000000     0.405881   
C70      C      0.620330000000     0.414030000000     0.494080000000     0.405684   
C71      C      0.664360000000     0.370220000000     0.493880000000     0.405609   
C72      C      0.576490000000     0.370000000000     0.494030000000     0.405819   
C73      C      0.664320000000     0.620340000000     0.994810000000     0.405636   
C74      C      0.576450000000     0.620200000000     0.995010000000     0.405713   
C75      C      0.620320000000     0.664210000000     0.994900000000     0.405509   
C76      C      0.620460000000     0.576340000000     0.994840000000     0.405756   
C77      C      0.664300000000     0.620470000000     0.494840000000     0.405667   
C78      C      0.576430000000     0.620620000000     0.495050000000     0.40582    
C79      C      0.620420000000     0.664460000000     0.494970000000     0.405599   
C80      C      0.620300000000     0.576600000000     0.494820000000     0.405858   
C81      C      0.164400000000     0.369540000000     0.994560000000     0.405796   
C82      C      0.076520000000     0.371070000000     0.994940000000     0.405992   
C83      C      0.120370000000     0.370340000000     0.906980000000     0.406094   
C84      C      0.120550000000     0.370330000000     0.082390000000     0.406402   
C85      C      0.164390000000     0.371190000000     0.494820000000     0.405876   
C86      C      0.076520000000     0.369770000000     0.494440000000     0.406162   
C87      C      0.120370000000     0.370480000000     0.582430000000     0.406232   
C88      C      0.120540000000     0.370430000000     0.407030000000     0.406149   
C89      C      0.826070000000     0.370280000000     0.993890000000     0.405561   
C90      C      0.913930000000     0.371080000000     0.993530000000     0.405724   
C91      C      0.870100000000     0.370590000000     0.081440000000     0.405812   
C92      C      0.869900000000     0.370610000000     0.906030000000     0.40581    
C93      C      0.826050000000     0.370100000000     0.493510000000     0.405856   
C94      C      0.913920000000     0.369590000000     0.494050000000     0.405744   
C95      C      0.869860000000     0.369920000000     0.581430000000     0.405643   
C96      C      0.870110000000     0.369940000000     0.406020000000     0.405719   
C97      C      0.864840000000     0.351220000000     0.792350000000    -0.0850682  
C98      C      0.869850000000     0.370330000000     0.768330000000     0.0341247  
C99      C      0.874840000000     0.389560000000     0.792000000000    -0.0850143  
C100     C      0.874450000000     0.389460000000     0.837930000000     0.0701152  
C101     C      0.865240000000     0.351540000000     0.838260000000     0.0701318  
C102     C      0.869840000000     0.370200000000     0.719120000000     0.0343098  
C103     C      0.874880000000     0.350980000000     0.695460000000    -0.0851615  
C104     C      0.874480000000     0.351090000000     0.649520000000     0.0701906  
C105     C      0.865140000000     0.388960000000     0.649210000000     0.0703833  
C106     C      0.864760000000     0.389290000000     0.695120000000    -0.0853129  
C107     C      0.875240000000     0.389300000000     0.292310000000    -0.08519    
C108     C      0.870160000000     0.370210000000     0.268330000000     0.0342372  
C109     C      0.865090000000     0.351000000000     0.291990000000    -0.0851588  
C110     C      0.865470000000     0.351120000000     0.337930000000     0.0701207  
C111     C      0.874870000000     0.388990000000     0.338230000000     0.0702114  
C112     C      0.870160000000     0.370320000000     0.219130000000     0.0342816  
C113     C      0.865020000000     0.389510000000     0.195470000000    -0.0851919  
C114     C      0.865390000000     0.389390000000     0.149540000000     0.0701923  
C115     C      0.874910000000     0.351560000000     0.149230000000     0.0703136  
C116     C      0.875300000000     0.351240000000     0.195150000000    -0.0853153  
C117     C      0.970890000000     0.350190000000     0.483990000000    -0.0850836  
C118     C      0.982890000000     0.369250000000     0.494490000000     0.0343414  
C119     C      0.971010000000     0.388370000000     0.505100000000    -0.0851015  
C120     C      0.948010000000     0.388270000000     0.504170000000     0.0703529  
C121     C      0.947870000000     0.350500000000     0.484680000000     0.0702942  
C122     C      0.007540000000     0.369250000000     0.494220000000     0.0343208  
C123     C      0.019590000000     0.350030000000     0.503430000000    -0.0849395  
C124     C      0.042620000000     0.350380000000     0.502620000000     0.0702947  
C125     C      0.042360000000     0.388440000000     0.485510000000     0.0704155  
C126     C      0.019380000000     0.388530000000     0.484730000000    -0.0852759  
C127     C      0.115290000000     0.389620000000     0.696290000000    -0.0851282  
C128     C      0.120280000000     0.370430000000     0.720110000000     0.0342396  
C129     C      0.125290000000     0.351270000000     0.696260000000    -0.0852476  
C130     C      0.124920000000     0.351510000000     0.650350000000     0.0702894  
C131     C      0.115720000000     0.389430000000     0.650370000000     0.0702784  
C132     C      0.120270000000     0.370410000000     0.769310000000     0.0342957  
C133     C      0.125320000000     0.389560000000     0.793170000000    -0.0852282  
C134     C      0.124950000000     0.389320000000     0.839080000000     0.0703277  
C135     C      0.115680000000     0.351420000000     0.839030000000     0.0702551  
C136     C      0.115250000000     0.351240000000     0.793110000000    -0.085164   
C137     C      0.115910000000     0.351110000000     0.196230000000    -0.0851985  
C138     C      0.120630000000     0.370360000000     0.220080000000     0.0343289  
C139     C      0.125340000000     0.389600000000     0.196170000000    -0.0852357  
C140     C      0.124870000000     0.389370000000     0.150260000000     0.0706038  
C141     C      0.116340000000     0.351310000000     0.150310000000     0.0705054  
C142     C      0.120630000000     0.370380000000     0.269340000000     0.0343169  
C143     C      0.115910000000     0.389630000000     0.293180000000    -0.0851615  
C144     C      0.116340000000     0.389440000000     0.339090000000     0.0704786  
C145     C      0.124840000000     0.351370000000     0.339170000000     0.070524   
C146     C      0.125320000000     0.351140000000     0.293250000000    -0.0851726  
C147     C      0.971090000000     0.352430000000     0.983050000000    -0.085069   
C148     C      0.982900000000     0.371570000000     0.993840000000     0.0342466  
C149     C      0.970830000000     0.390610000000     0.004160000000    -0.0849279  
C150     C      0.947820000000     0.390260000000     0.003180000000     0.0702309  
C151     C      0.948090000000     0.352480000000     0.983690000000     0.0702718  
C152     C      0.007550000000     0.371600000000     0.994490000000     0.0342854  
C153     C      0.019370000000     0.352320000000     0.004170000000    -0.0852877  
C154     C      0.042350000000     0.352420000000     0.003650000000     0.0706163  
C155     C      0.042640000000     0.390480000000     0.986510000000     0.0701838  
C156     C      0.019620000000     0.390820000000     0.985430000000    -0.0849141  
C157     C      0.721370000000     0.374810000000     0.455140000000    -0.0866119  
C158     C      0.733060000000     0.370400000000     0.493700000000     0.034381   
C159     C      0.721440000000     0.365950000000     0.532330000000    -0.0866247  
C160     C      0.698430000000     0.366240000000     0.531950000000     0.070155   
C161     C      0.698360000000     0.374420000000     0.455640000000     0.0701512  
C162     C      0.757350000000     0.370340000000     0.493600000000     0.0343609  
C163     C      0.769070000000     0.389630000000     0.484650000000    -0.0866013  
C164     C      0.792080000000     0.389330000000     0.485280000000     0.0702124  
C165     C      0.791960000000     0.351120000000     0.501740000000     0.0701451  
C166     C      0.768950000000     0.350980000000     0.502470000000    -0.0866011  
C167     C      0.615200000000     0.519530000000     0.532820000000    -0.0851747  
C168     C      0.620240000000     0.507640000000     0.494510000000     0.0343082  
C169     C      0.625280000000     0.519610000000     0.456320000000    -0.085249   
C170     C      0.624920000000     0.542610000000     0.456860000000     0.07024    
C171     C      0.615610000000     0.542540000000     0.532500000000     0.0702616  
C172     C      0.620240000000     0.482990000000     0.494390000000     0.0342464  
C173     C      0.625330000000     0.471020000000     0.532570000000    -0.0852603  
C174     C      0.624970000000     0.448020000000     0.532020000000     0.070322   
C175     C      0.615590000000     0.448090000000     0.456420000000     0.0702467  
C176     C      0.615170000000     0.471090000000     0.456100000000    -0.0851397  
C177     C      0.721400000000     0.374090000000     0.955380000000    -0.08659    
C178     C      0.733080000000     0.369680000000     0.993960000000     0.0343066  
C179     C      0.721450000000     0.365240000000     0.032580000000    -0.0865739  
C180     C      0.698440000000     0.365580000000     0.032190000000     0.0701966  
C181     C      0.698390000000     0.373740000000     0.955870000000     0.0700596  
C182     C      0.757370000000     0.369810000000     0.993940000000     0.0343461  
C183     C      0.769150000000     0.350560000000     0.002860000000    -0.0865732  
C184     C      0.792160000000     0.350930000000     0.002160000000     0.0701923  
C185     C      0.791900000000     0.389140000000     0.985690000000     0.0701616  
C186     C      0.768900000000     0.389210000000     0.985030000000    -0.0866221  
C187     C      0.625570000000     0.519350000000     0.956410000000    -0.0851616  
C188     C      0.620540000000     0.507370000000     0.994620000000     0.0341745  
C189     C      0.615500000000     0.519270000000     0.032920000000    -0.0850857  
C190     C      0.615860000000     0.542270000000     0.032570000000     0.0702107  
C191     C      0.625160000000     0.542350000000     0.956920000000     0.0702368  
C192     C      0.620560000000     0.482720000000     0.994510000000     0.0341944  
C193     C      0.615490000000     0.470820000000     0.956230000000    -0.0851424  
C194     C      0.615880000000     0.447820000000     0.956570000000     0.0701868  
C195     C      0.625260000000     0.447750000000     0.032180000000     0.0702531  
C196     C      0.625640000000     0.470750000000     0.032700000000    -0.0851094  
C197     C      0.519460000000     0.625900000000     0.533530000000    -0.08511    
C198     C      0.507460000000     0.620930000000     0.495320000000     0.0342161  
C199     C      0.519340000000     0.615840000000     0.457020000000    -0.0851654  
C200     C      0.542340000000     0.616110000000     0.457360000000     0.070298   
C201     C      0.542460000000     0.625400000000     0.533010000000     0.070147   
C202     C      0.482820000000     0.621070000000     0.495420000000     0.0342341  
C203     C      0.470880000000     0.616040000000     0.533680000000    -0.0851554  
C204     C      0.447880000000     0.616530000000     0.533300000000     0.0702166  
C205     C      0.447880000000     0.625950000000     0.457710000000     0.0702483  
C206     C      0.470880000000     0.626240000000     0.457230000000    -0.0852098  
C207     C      0.470880000000     0.625110000000     0.957120000000    -0.0851819  
C208     C      0.482830000000     0.620040000000     0.995320000000     0.0342116  
C209     C      0.470920000000     0.614950000000     0.033580000000    -0.0850958  
C210     C      0.447910000000     0.615330000000     0.033190000000     0.0702543  
C211     C      0.447880000000     0.624710000000     0.957590000000     0.0701937  
C212     C      0.507480000000     0.620050000000     0.995250000000     0.034233   
C213     C      0.519390000000     0.615030000000     0.956950000000    -0.0851979  
C214     C      0.542400000000     0.615470000000     0.957300000000     0.0702152  
C215     C      0.542440000000     0.624780000000     0.032940000000     0.0702962  
C216     C      0.519440000000     0.625120000000     0.033460000000    -0.0852171  
C217     C      0.269070000000     0.376170000000     0.532850000000    -0.0865761  
C218     C      0.257350000000     0.372190000000     0.494150000000     0.0342946  
C219     C      0.268930000000     0.367990000000     0.455360000000    -0.0867358  
C220     C      0.291940000000     0.368030000000     0.455760000000     0.0701926  
C221     C      0.292070000000     0.375570000000     0.532340000000     0.0700734  
C222     C      0.233080000000     0.372020000000     0.494350000000     0.0344769  
C223     C      0.221640000000     0.352400000000     0.487250000000    -0.086943   
C224     C      0.198650000000     0.352390000000     0.488040000000     0.0703186  
C225     C      0.198220000000     0.390920000000     0.501190000000     0.070114   
C226     C      0.221240000000     0.391410000000     0.501650000000    -0.0866541  
C227     C      0.519440000000     0.374970000000     0.532250000000    -0.0851498  
C228     C      0.507520000000     0.369960000000     0.493960000000     0.0342564  
C229     C      0.519470000000     0.364930000000     0.455720000000    -0.085226   
C230     C      0.542470000000     0.365310000000     0.456200000000     0.070227   
C231     C      0.542450000000     0.374580000000     0.531860000000     0.0702083  
C232     C      0.482880000000     0.370010000000     0.493890000000     0.0342221  
C233     C      0.470910000000     0.364930000000     0.532070000000    -0.0851218  
C234     C      0.447900000000     0.365410000000     0.531610000000     0.0701461  
C235     C      0.447970000000     0.374860000000     0.456040000000     0.0703014  
C236     C      0.470970000000     0.375160000000     0.455640000000    -0.0852291  
C237     C      0.375500000000     0.471640000000     0.532930000000    -0.0851018  
C238     C      0.370450000000     0.483640000000     0.494760000000     0.0342533  
C239     C      0.365400000000     0.471780000000     0.456440000000    -0.0852213  
C240     C      0.365780000000     0.448780000000     0.456710000000     0.0702551  
C241     C      0.375110000000     0.448640000000     0.532350000000     0.0701877  
C242     C      0.370400000000     0.508290000000     0.494920000000     0.034326   
C243     C      0.365270000000     0.520150000000     0.533210000000    -0.0852961  
C244     C      0.365550000000     0.543160000000     0.532870000000     0.0702948  
C245     C      0.374940000000     0.543290000000     0.457270000000     0.070254   
C246     C      0.375440000000     0.520290000000     0.456750000000    -0.0852246  
C247     C      0.269010000000     0.364310000000     0.955980000000    -0.0866115  
C248     C      0.257360000000     0.368400000000     0.994720000000     0.0342872  
C249     C      0.269010000000     0.372650000000     0.033400000000    -0.0866601  
C250     C      0.292010000000     0.372550000000     0.032860000000     0.0701791  
C251     C      0.292010000000     0.364850000000     0.956340000000     0.0700891  
C252     C      0.233090000000     0.368600000000     0.994680000000     0.034337   
C253     C      0.221680000000     0.388220000000     0.002070000000    -0.0867804  
C254     C      0.198690000000     0.388270000000     0.001400000000     0.0704232  
C255     C      0.198180000000     0.349780000000     0.987870000000     0.070094   
C256     C      0.221200000000     0.349250000000     0.987250000000    -0.086606   
C257     C      0.470940000000     0.375160000000     0.956070000000    -0.0851158  
C258     C      0.482890000000     0.370080000000     0.994290000000     0.0341546  
C259     C      0.470960000000     0.364950000000     0.032510000000    -0.085141   
C260     C      0.447960000000     0.365280000000     0.032070000000     0.070283   
C261     C      0.447940000000     0.374720000000     0.956490000000     0.0701814  
C262     C      0.507540000000     0.370070000000     0.994290000000     0.0342628  
C263     C      0.519460000000     0.365030000000     0.956030000000    -0.0852222  
C264     C      0.542470000000     0.365370000000     0.956470000000     0.0701571  
C265     C      0.542480000000     0.374640000000     0.032130000000     0.070293   
C266     C      0.519480000000     0.375080000000     0.032550000000    -0.08516    
C267     C      0.374770000000     0.519070000000     0.956850000000    -0.0850826  
C268     C      0.369680000000     0.507120000000     0.995070000000     0.0341168  
C269     C      0.364660000000     0.519060000000     0.033330000000    -0.0850584  
C270     C      0.365110000000     0.542060000000     0.032940000000     0.0702736  
C271     C      0.374450000000     0.542070000000     0.957320000000     0.0701241  
C272     C      0.369620000000     0.482470000000     0.995020000000     0.0342055  
C273     C      0.364550000000     0.470570000000     0.956740000000    -0.0851983  
C274     C      0.364920000000     0.447570000000     0.957090000000     0.070183   
C275     C      0.374240000000     0.447490000000     0.032720000000     0.0702678  
C276     C      0.374640000000     0.470490000000     0.033240000000    -0.0851261  
C277     C      0.639790000000     0.769090000000     0.503270000000    -0.0867822  
C278     C      0.620400000000     0.757430000000     0.494970000000     0.0344113  
C279     C      0.601000000000     0.769070000000     0.486620000000    -0.0866246  
C280     C      0.601220000000     0.792080000000     0.487220000000     0.070147   
C281     C      0.639550000000     0.792100000000     0.502540000000     0.0703204  
C282     C      0.620410000000     0.733150000000     0.494980000000     0.0344123  
C283     C      0.624820000000     0.721500000000     0.533590000000    -0.0867159  
C284     C      0.624490000000     0.698500000000     0.533150000000     0.0701508  
C285     C      0.616350000000     0.698500000000     0.456810000000     0.0701564  
C286     C      0.616010000000     0.721500000000     0.456370000000    -0.0866969  
C287     C      0.639680000000     0.768840000000     0.003340000000    -0.0865603  
C288     C      0.620310000000     0.757190000000     0.994840000000     0.0343241  
C289     C      0.600940000000     0.768850000000     0.986300000000    -0.0866646  
C290     C      0.601180000000     0.791860000000     0.986940000000     0.0701804  
C291     C      0.639470000000     0.791840000000     0.002630000000     0.0701899  
C292     C      0.620290000000     0.732900000000     0.994860000000     0.0343517  
C293     C      0.624710000000     0.721260000000     0.033470000000    -0.0865837  
C294     C      0.624380000000     0.698250000000     0.033050000000     0.0701594  
C295     C      0.616210000000     0.698240000000     0.956730000000     0.0701134  
C296     C      0.615870000000     0.721240000000     0.956270000000    -0.0866777  
C297     C      0.638500000000     0.864430000000     0.792920000000    -0.0852198  
C298     C      0.619350000000     0.869810000000     0.769320000000     0.0342176  
C299     C      0.600320000000     0.875020000000     0.793400000000    -0.0850338  
C300     C      0.600670000000     0.874570000000     0.839350000000     0.0701235  
C301     C      0.638440000000     0.864800000000     0.838820000000     0.0703198  
C302     C      0.619320000000     0.870050000000     0.720110000000     0.0342892  
C303     C      0.638600000000     0.874840000000     0.696460000000    -0.0853989  
C304     C      0.638480000000     0.874520000000     0.650580000000     0.0705427  
C305     C      0.600420000000     0.865950000000     0.650120000000     0.0701018  
C306     C      0.600100000000     0.865480000000     0.696080000000    -0.084975   
C307     C      0.640410000000     0.875000000000     0.196000000000    -0.0851075  
C308     C      0.621370000000     0.869790000000     0.220080000000     0.0343158  
C309     C      0.602220000000     0.864430000000     0.196480000000    -0.085398   
C310     C      0.602280000000     0.864820000000     0.150580000000     0.0704485  
C311     C      0.640050000000     0.874570000000     0.150060000000     0.0701902  
C312     C      0.621410000000     0.870020000000     0.269300000000     0.0341993  
C313     C      0.640630000000     0.865440000000     0.293330000000    -0.084946   
C314     C      0.640310000000     0.865900000000     0.339290000000     0.0701654  
C315     C      0.602250000000     0.874470000000     0.338840000000     0.0703338  
C316     C      0.602130000000     0.874800000000     0.292950000000    -0.0852105  
C317     C      0.601080000000     0.221560000000     0.502260000000    -0.0866045  
C318     C      0.620490000000     0.233190000000     0.493930000000     0.0343602  
C319     C      0.639870000000     0.221520000000     0.485670000000    -0.0865959  
C320     C      0.639630000000     0.198510000000     0.486410000000     0.070126   
C321     C      0.601290000000     0.198550000000     0.501670000000     0.0701969  
C322     C      0.620510000000     0.257470000000     0.493920000000     0.0344193  
C323     C      0.616160000000     0.269120000000     0.532550000000    -0.0866862  
C324     C      0.616500000000     0.292130000000     0.532110000000     0.0701472  
C325     C      0.624550000000     0.292130000000     0.455740000000     0.0701157  
C326     C      0.624880000000     0.269120000000     0.455300000000    -0.0866733  
C327     C      0.601110000000     0.019620000000     0.503830000000    -0.0851202  
C328     C      0.620360000000     0.007650000000     0.494520000000     0.034406   
C329     C      0.639620000000     0.019600000000     0.485170000000    -0.0851328  
C330     C      0.639420000000     0.042600000000     0.486040000000     0.0705588  
C331     C      0.601330000000     0.042620000000     0.502870000000     0.0705516  
C332     C      0.620360000000     0.982970000000     0.494570000000     0.0344128  
C333     C      0.639610000000     0.971010000000     0.503930000000    -0.0851845  
C334     C      0.639400000000     0.948010000000     0.503050000000     0.070621   
C335     C      0.601320000000     0.948000000000     0.486190000000     0.070659   
C336     C      0.601100000000     0.971000000000     0.485250000000    -0.085165   
C337     C      0.624690000000     0.268840000000     0.955630000000    -0.0866573  
C338     C      0.620330000000     0.257190000000     0.994270000000     0.0343298  
C339     C      0.615950000000     0.268850000000     0.032880000000    -0.0866126  
C340     C      0.616290000000     0.291860000000     0.032420000000     0.070168   
C341     C      0.624360000000     0.291850000000     0.956060000000     0.070159   
C342     C      0.620340000000     0.232910000000     0.994280000000     0.0343295  
C343     C      0.639720000000     0.221270000000     0.985770000000    -0.0866803  
C344     C      0.639510000000     0.198260000000     0.986460000000     0.0701266  
C345     C      0.601210000000     0.198240000000     0.002160000000     0.0701024  
C346     C      0.600980000000     0.221250000000     0.002820000000    -0.0864798  
C347     C      0.602130000000     0.115700000000     0.696010000000    -0.0853446  
C348     C      0.621400000000     0.120430000000     0.719700000000     0.0342583  
C349     C      0.640630000000     0.125050000000     0.695700000000    -0.0849437  
C350     C      0.640320000000     0.124650000000     0.649740000000     0.070102   
C351     C      0.602250000000     0.116110000000     0.650130000000     0.0704693  
C352     C      0.621370000000     0.120570000000     0.768920000000     0.0342545  
C353     C      0.602220000000     0.125890000000     0.792560000000    -0.0853336  
C354     C      0.602280000000     0.125420000000     0.838460000000     0.0703857  
C355     C      0.640050000000     0.115650000000     0.838900000000     0.070119   
C356     C      0.640410000000     0.115310000000     0.792960000000    -0.0850473  
C357     C      0.600170000000     0.124930000000     0.292890000000    -0.0849816  
C358     C      0.619400000000     0.120300000000     0.268890000000     0.0342458  
C359     C      0.638670000000     0.115550000000     0.292570000000    -0.0853067  
C360     C      0.638550000000     0.115960000000     0.338460000000     0.0704979  
C361     C      0.600490000000     0.124540000000     0.338850000000     0.0700804  
C362     C      0.619430000000     0.120450000000     0.219680000000     0.034254   
C363     C      0.600390000000     0.115210000000     0.195630000000    -0.0850064  
C364     C      0.600740000000     0.115580000000     0.149690000000     0.0700887  
C365     C      0.638510000000     0.125340000000     0.150140000000     0.0704767  
C366     C      0.638580000000     0.125780000000     0.196040000000    -0.0853738  
C367     C      0.601270000000     0.019300000000     0.984150000000    -0.0850966  
C368     C      0.620410000000     0.007370000000     0.994410000000     0.0342536  
C369     C      0.639550000000     0.019310000000     0.004600000000    -0.0851162  
C370     C      0.639330000000     0.042320000000     0.003800000000     0.0703418  
C371     C      0.601490000000     0.042310000000     0.984850000000     0.0702561  
C372     C      0.620400000000     0.982730000000     0.994490000000     0.0342791  
C373     C      0.601260000000     0.970810000000     0.004770000000    -0.0850566  
C374     C      0.601470000000     0.947800000000     0.004080000000     0.0702621  
C375     C      0.639310000000     0.947780000000     0.985090000000     0.0702699  
C376     C      0.639540000000     0.970790000000     0.984280000000    -0.0852033  
C377     C      0.221300000000     0.640070000000     0.503660000000    -0.0865491  
C378     C      0.233000000000     0.620760000000     0.494840000000     0.0343898  
C379     C      0.221390000000     0.601420000000     0.485890000000    -0.0866361  
C380     C      0.198380000000     0.601600000000     0.486440000000     0.0701257  
C381     C      0.198290000000     0.639820000000     0.502850000000     0.0700902  
C382     C      0.257280000000     0.620810000000     0.494970000000     0.0343563  
C383     C      0.269000000000     0.616480000000     0.456390000000    -0.086631   
C384     C      0.292000000000     0.616890000000     0.456940000000     0.0701727  
C385     C      0.291890000000     0.624950000000     0.533300000000     0.0701346  
C386     C      0.268880000000     0.625210000000     0.533640000000    -0.0866443  
C387     C      0.268990000000     0.615890000000     0.956340000000    -0.0866944  
C388     C      0.257300000000     0.620300000000     0.994910000000     0.0343159  
C389     C      0.268920000000     0.624640000000     0.033590000000    -0.0865642  
C390     C      0.291930000000     0.624230000000     0.033260000000     0.0701331  
C391     C      0.291990000000     0.616160000000     0.956900000000     0.0702103  
C392     C      0.233010000000     0.620360000000     0.994780000000     0.0343545  
C393     C      0.221380000000     0.639710000000     0.003590000000    -0.0865669  
C394     C      0.198370000000     0.639540000000     0.002770000000     0.0701665  
C395     C      0.198330000000     0.601320000000     0.986370000000     0.0701831  
C396     C      0.221330000000     0.601060000000     0.985830000000    -0.0866261  
C397     C      0.125420000000     0.639700000000     0.792820000000    -0.0852423  
C398     C      0.120340000000     0.620550000000     0.768980000000     0.0342701  
C399     C      0.115280000000     0.601390000000     0.792800000000    -0.0852512  
C400     C      0.115690000000     0.601600000000     0.838730000000     0.0702715  
C401     C      0.125050000000     0.639470000000     0.838750000000     0.0702488  
C402     C      0.120330000000     0.620570000000     0.719780000000     0.0342106  
C403     C      0.115250000000     0.639730000000     0.695970000000    -0.0851807  
C404     C      0.115640000000     0.639520000000     0.650040000000     0.0701964  
C405     C      0.125020000000     0.601650000000     0.650010000000     0.0702177  
C406     C      0.125400000000     0.601420000000     0.695930000000    -0.0851934  
C407     C      0.125460000000     0.639730000000     0.292810000000    -0.0852336  
C408     C      0.120400000000     0.620570000000     0.268980000000     0.0342159  
C409     C      0.115350000000     0.601410000000     0.292820000000    -0.0851107  
C410     C      0.115740000000     0.601630000000     0.338750000000     0.0701052  
C411     C      0.125080000000     0.639510000000     0.338730000000     0.0703019  
C412     C      0.120400000000     0.620570000000     0.219780000000     0.0342212  
C413     C      0.115330000000     0.639720000000     0.195940000000    -0.0851694  
C414     C      0.115710000000     0.639500000000     0.150020000000     0.0702367  
C415     C      0.125060000000     0.601620000000     0.150030000000     0.0701665  
C416     C      0.125460000000     0.601410000000     0.195950000000    -0.0851443  
C417     C      0.768930000000     0.639790000000     0.485850000000    -0.0867238  
C418     C      0.757280000000     0.620460000000     0.494740000000     0.0344139  
C419     C      0.768950000000     0.601130000000     0.503630000000    -0.0866627  
C420     C      0.791950000000     0.601360000000     0.502930000000     0.0702108  
C421     C      0.791940000000     0.639570000000     0.486510000000     0.0702346  
C422     C      0.733000000000     0.620450000000     0.494760000000     0.034338   
C423     C      0.721350000000     0.616010000000     0.533370000000    -0.0866252  
C424     C      0.698340000000     0.616350000000     0.532950000000     0.0701513  
C425     C      0.698320000000     0.624540000000     0.456640000000     0.0701156  
C426     C      0.721330000000     0.624880000000     0.456180000000    -0.0865946  
C427     C      0.019410000000     0.601350000000     0.504420000000    -0.085201   
C428     C      0.007460000000     0.620500000000     0.494310000000     0.0343466  
C429     C      0.019390000000     0.639660000000     0.484170000000    -0.0852049  
C430     C      0.042390000000     0.639450000000     0.484920000000     0.0703375  
C431     C      0.042410000000     0.601580000000     0.503630000000     0.0703577  
C432     C      0.982820000000     0.620490000000     0.494370000000     0.0342658  
C433     C      0.970880000000     0.601340000000     0.484270000000    -0.0850183  
C434     C      0.947870000000     0.601550000000     0.485100000000     0.0701845  
C435     C      0.947880000000     0.639420000000     0.503820000000     0.0704122  
C436     C      0.970880000000     0.639640000000     0.504530000000    -0.0851299  
C437     C      0.768950000000     0.639760000000     0.985750000000    -0.0866307  
C438     C      0.757300000000     0.620430000000     0.994670000000     0.0342712  
C439     C      0.768980000000     0.601110000000     0.003550000000    -0.0864419  
C440     C      0.791980000000     0.601340000000     0.002840000000     0.0701402  
C441     C      0.791950000000     0.639560000000     0.986410000000     0.070162   
C442     C      0.733020000000     0.620410000000     0.994710000000     0.0343411  
C443     C      0.721340000000     0.624830000000     0.956130000000    -0.0866496  
C444     C      0.698340000000     0.624460000000     0.956600000000     0.070122   
C445     C      0.698370000000     0.616300000000     0.032920000000     0.0701971  
C446     C      0.721380000000     0.615980000000     0.033320000000    -0.0865824  
C447     C      0.875030000000     0.639650000000     0.793040000000    -0.0852041  
C448     C      0.869980000000     0.620490000000     0.769220000000     0.0342778  
C449     C      0.864910000000     0.601340000000     0.793050000000    -0.0852416  
C450     C      0.865290000000     0.601560000000     0.838970000000     0.070166   
C451     C      0.874630000000     0.639440000000     0.838960000000     0.0702806  
C452     C      0.869980000000     0.620480000000     0.720010000000     0.0342346  
C453     C      0.864900000000     0.639630000000     0.696180000000    -0.0851907  
C454     C      0.865280000000     0.639410000000     0.650250000000     0.0701708  
C455     C      0.874650000000     0.601540000000     0.650260000000     0.070249   
C456     C      0.875050000000     0.601330000000     0.696180000000    -0.0851721  
C457     C      0.864820000000     0.639640000000     0.196170000000    -0.0851135  
C458     C      0.869890000000     0.620490000000     0.220010000000     0.034199   
C459     C      0.874970000000     0.601340000000     0.196190000000    -0.0850923  
C460     C      0.874600000000     0.601550000000     0.150260000000     0.0701276  
C461     C      0.865220000000     0.639430000000     0.150250000000     0.0701207  
C462     C      0.869880000000     0.620500000000     0.269210000000     0.0342668  
C463     C      0.874930000000     0.639660000000     0.293040000000    -0.085264   
C464     C      0.874540000000     0.639440000000     0.338970000000     0.070273   
C465     C      0.865200000000     0.601560000000     0.338970000000     0.0702176  
C466     C      0.864820000000     0.601340000000     0.293040000000    -0.085196   
C467     C      0.970910000000     0.601420000000     0.984390000000    -0.085069   
C468     C      0.982840000000     0.620570000000     0.994500000000     0.0342801  
C469     C      0.970900000000     0.639720000000     0.004640000000    -0.085108   
C470     C      0.947890000000     0.639490000000     0.003910000000     0.0703726  
C471     C      0.947900000000     0.601620000000     0.985200000000     0.0702558  
C472     C      0.007480000000     0.620580000000     0.994470000000     0.0342776  
C473     C      0.019420000000     0.601430000000     0.004590000000    -0.0850303  
C474     C      0.042420000000     0.601640000000     0.003790000000     0.0702837  
C475     C      0.042420000000     0.639510000000     0.985070000000     0.0703533  
C476     C      0.019410000000     0.639730000000     0.984330000000    -0.0851604  
C477     C      0.388900000000     0.222220000000     0.483740000000    -0.0865746  
C478     C      0.369530000000     0.233820000000     0.492630000000     0.0343332  
C479     C      0.350230000000     0.222100000000     0.501390000000    -0.0866083  
C480     C      0.350520000000     0.199090000000     0.500640000000     0.0701883  
C481     C      0.388740000000     0.199210000000     0.484350000000     0.0701627  
C482     C      0.369470000000     0.258110000000     0.492800000000     0.0343867  
C483     C      0.373830000000     0.269850000000     0.454280000000    -0.0866189  
C484     C      0.373500000000     0.292860000000     0.454920000000     0.0700247  
C485     C      0.365440000000     0.292690000000     0.531290000000     0.0700948  
C486     C      0.365100000000     0.269680000000     0.531530000000    -0.086663   
C487     C      0.389470000000     0.220970000000     0.983840000000    -0.0865605  
C488     C      0.370180000000     0.232660000000     0.992880000000     0.0343104  
C489     C      0.350830000000     0.221030000000     0.001720000000    -0.0866097  
C490     C      0.350990000000     0.198030000000     0.000870000000     0.0702395  
C491     C      0.389200000000     0.197970000000     0.984360000000     0.070164   
C492     C      0.370250000000     0.256940000000     0.993160000000     0.0343789  
C493     C      0.374670000000     0.268700000000     0.954680000000    -0.0867112  
C494     C      0.374360000000     0.291700000000     0.955390000000     0.0702025  
C495     C      0.366280000000     0.291490000000     0.031740000000     0.0702541  
C496     C      0.365900000000     0.268490000000     0.031920000000    -0.086692   
C497     C      0.389010000000     0.115350000000     0.790910000000    -0.0851937  
C498     C      0.369840000000     0.120510000000     0.767210000000     0.0342503  
C499     C      0.350690000000     0.125450000000     0.791160000000    -0.0852443  
C500     C      0.350940000000     0.124880000000     0.837070000000     0.0702137  
C501     C      0.388820000000     0.115550000000     0.836840000000     0.070264   
C502     C      0.369810000000     0.120740000000     0.718000000000     0.0342539  
C503     C      0.388950000000     0.125950000000     0.694240000000    -0.0852279  
C504     C      0.388720000000     0.125750000000     0.648310000000     0.0702567  
C505     C      0.350860000000     0.116330000000     0.648200000000     0.070222   
C506     C      0.350650000000     0.115760000000     0.694110000000    -0.0852515  
C507     C      0.389190000000     0.125470000000     0.194110000000    -0.0851145  
C508     C      0.370030000000     0.120490000000     0.218000000000     0.0341862  
C509     C      0.350880000000     0.115330000000     0.194230000000    -0.0851021  
C510     C      0.351100000000     0.115570000000     0.148300000000     0.0701529  
C511     C      0.388980000000     0.124940000000     0.148190000000     0.0701816  
C512     C      0.370020000000     0.120670000000     0.267210000000     0.0342812  
C513     C      0.389170000000     0.115720000000     0.291140000000    -0.0851486  
C514     C      0.388930000000     0.116260000000     0.337060000000     0.0702093  
C515     C      0.351040000000     0.125550000000     0.336860000000     0.0702903  
C516     C      0.350840000000     0.125790000000     0.290940000000    -0.0853195  
C517     C      0.365320000000     0.722180000000     0.457260000000    -0.0866082  
C518     C      0.369710000000     0.733810000000     0.495920000000     0.0343025  
C519     C      0.374100000000     0.722110000000     0.534490000000    -0.0865922  
C520     C      0.373770000000     0.699110000000     0.533960000000     0.0701808  
C521     C      0.365680000000     0.699180000000     0.457610000000     0.0701113  
C522     C      0.369730000000     0.758090000000     0.495980000000     0.0344115  
C523     C      0.389070000000     0.769720000000     0.504920000000    -0.0866546  
C524     C      0.388880000000     0.792730000000     0.504210000000     0.07024    
C525     C      0.350680000000     0.792780000000     0.487690000000     0.0701791  
C526     C      0.350420000000     0.769770000000     0.487040000000    -0.0866733  
C527     C      0.350890000000     0.971740000000     0.504760000000    -0.0851588  
C528     C      0.370060000000     0.983620000000     0.494460000000     0.0343039  
C529     C      0.389220000000     0.971630000000     0.484640000000    -0.0851054  
C530     C      0.388990000000     0.948630000000     0.485810000000     0.0702345  
C531     C      0.351100000000     0.948740000000     0.504400000000     0.0703059  
C532     C      0.370060000000     0.008270000000     0.493930000000     0.0343373  
C533     C      0.350900000000     0.020140000000     0.483510000000    -0.0851882  
C534     C      0.351100000000     0.043150000000     0.483860000000     0.07027    
C535     C      0.388960000000     0.043270000000     0.502650000000     0.0703644  
C536     C      0.389200000000     0.020270000000     0.503850000000    -0.0851564  
C537     C      0.350560000000     0.768620000000     0.987120000000    -0.0866172  
C538     C      0.369900000000     0.756960000000     0.995930000000     0.0342617  
C539     C      0.389230000000     0.768630000000     0.004790000000    -0.086448   
C540     C      0.389000000000     0.791630000000     0.004130000000     0.0701134  
C541     C      0.350770000000     0.791620000000     0.987820000000     0.0701515  
C542     C      0.369920000000     0.732680000000     0.995830000000     0.034285   
C543     C      0.374330000000     0.720980000000     0.034390000000    -0.0865195  
C544     C      0.374010000000     0.697970000000     0.033850000000     0.070135   
C545     C      0.365900000000     0.698050000000     0.957500000000     0.0700151  
C546     C      0.365540000000     0.721060000000     0.957170000000    -0.0865603  
C547     C      0.350650000000     0.874980000000     0.794230000000    -0.0851046  
C548     C      0.369800000000     0.870010000000     0.770310000000     0.0341751  
C549     C      0.388950000000     0.864820000000     0.794060000000    -0.085109   
C550     C      0.388730000000     0.865010000000     0.839990000000     0.0701836  
C551     C      0.350860000000     0.874400000000     0.840140000000     0.070186   
C552     C      0.369810000000     0.870250000000     0.721110000000     0.0342744  
C553     C      0.350660000000     0.865320000000     0.697170000000    -0.0852591  
C554     C      0.350890000000     0.865900000000     0.651260000000     0.0703     
C555     C      0.388780000000     0.875200000000     0.651450000000     0.0701529  
C556     C      0.388980000000     0.875400000000     0.697390000000    -0.0851411  
C557     C      0.389150000000     0.865280000000     0.294210000000    -0.0852519  
C558     C      0.370000000000     0.870290000000     0.270310000000     0.0342442  
C559     C      0.350850000000     0.875450000000     0.294070000000    -0.0851331  
C560     C      0.351050000000     0.875200000000     0.340000000000     0.0701403  
C561     C      0.388920000000     0.865790000000     0.340130000000     0.0702087  
C562     C      0.370000000000     0.870120000000     0.221110000000     0.0342297  
C563     C      0.389160000000     0.875080000000     0.197200000000    -0.0851412  
C564     C      0.388930000000     0.874550000000     0.151280000000     0.0701993  
C565     C      0.351050000000     0.865230000000     0.151430000000     0.0702663  
C566     C      0.350840000000     0.864990000000     0.197360000000    -0.0852227  
C567     C      0.389090000000     0.019110000000     0.003680000000    -0.0850284  
C568     C      0.369920000000     0.007140000000     0.993820000000     0.0342414  
C569     C      0.350770000000     0.019040000000     0.983540000000    -0.0850983  
C570     C      0.351000000000     0.042050000000     0.983920000000     0.0702272  
C571     C      0.388890000000     0.042110000000     0.002520000000     0.0703175  
C572     C      0.369910000000     0.982500000000     0.994280000000     0.0342884  
C573     C      0.389060000000     0.970520000000     0.984320000000    -0.0851199  
C574     C      0.388850000000     0.947520000000     0.985520000000     0.0701854  
C575     C      0.350980000000     0.947610000000     0.004330000000     0.0703557  
C576     C      0.350770000000     0.970610000000     0.004680000000    -0.0850958  
Cu1      Cu     0.349590000000     0.869610000000     0.995780000000     0.845786   
Cu2      Cu     0.390200000000     0.869600000000     0.995630000000     0.846088   
Cu3      Cu     0.349610000000     0.870760000000     0.495680000000     0.846112   
Cu4      Cu     0.390220000000     0.870680000000     0.495740000000     0.845892   
Cu5      Cu     0.349680000000     0.120050000000     0.992640000000     0.845858   
Cu6      Cu     0.390290000000     0.120020000000     0.992570000000     0.846225   
Cu7      Cu     0.349560000000     0.121120000000     0.492530000000     0.846047   
Cu8      Cu     0.390170000000     0.121230000000     0.492690000000     0.845844   
Cu9      Cu     0.869920000000     0.640800000000     0.994630000000     0.84569    
Cu10     Cu     0.869950000000     0.600200000000     0.994590000000     0.845981   
Cu11     Cu     0.869910000000     0.640780000000     0.494640000000     0.84591    
Cu12     Cu     0.869920000000     0.600180000000     0.494580000000     0.846004   
Cu13     Cu     0.120400000000     0.640840000000     0.994360000000     0.846095   
Cu14     Cu     0.120360000000     0.600230000000     0.994410000000     0.846286   
Cu15     Cu     0.120340000000     0.640900000000     0.494360000000     0.845965   
Cu16     Cu     0.120390000000     0.600290000000     0.494410000000     0.846045   
Cu17     Cu     0.600090000000     0.120280000000     0.993890000000     0.845775   
Cu18     Cu     0.640690000000     0.120290000000     0.994700000000     0.845835   
Cu19     Cu     0.600090000000     0.120560000000     0.495000000000     0.846877   
Cu20     Cu     0.640730000000     0.120540000000     0.493580000000     0.846729   
Cu21     Cu     0.600060000000     0.869830000000     0.995130000000     0.846105   
Cu22     Cu     0.640660000000     0.869810000000     0.994280000000     0.845877   
Cu23     Cu     0.600050000000     0.870060000000     0.493980000000     0.846857   
Cu24     Cu     0.640690000000     0.870070000000     0.495440000000     0.846889   
Cu25     Cu     0.369960000000     0.369660000000     0.953790000000     0.84597    
Cu26     Cu     0.370010000000     0.369460000000     0.034860000000     0.846171   
Cu27     Cu     0.369950000000     0.370860000000     0.453360000000     0.846522   
Cu28     Cu     0.370000000000     0.370650000000     0.534430000000     0.845674   
Cu29     Cu     0.369900000000     0.619990000000     0.035880000000     0.845901   
Cu30     Cu     0.369960000000     0.620080000000     0.954820000000     0.846083   
Cu31     Cu     0.369880000000     0.621120000000     0.535940000000     0.846221   
Cu32     Cu     0.369960000000     0.621230000000     0.454870000000     0.846462   
Cu33     Cu     0.620470000000     0.369820000000     0.034770000000     0.846064   
Cu34     Cu     0.620410000000     0.369820000000     0.953700000000     0.846164   
Cu35     Cu     0.620400000000     0.370110000000     0.453440000000     0.846061   
Cu36     Cu     0.620450000000     0.370090000000     0.534520000000     0.846298   
Cu37     Cu     0.620370000000     0.620270000000     0.954360000000     0.846209   
Cu38     Cu     0.620400000000     0.620270000000     0.035430000000     0.846161   
Cu39     Cu     0.620350000000     0.620540000000     0.454390000000     0.846348   
Cu40     Cu     0.620380000000     0.620520000000     0.535460000000     0.846222   
Cu41     Cu     0.120000000000     0.350010000000     0.994710000000     0.84741    
Cu42     Cu     0.120910000000     0.390640000000     0.994660000000     0.846309   
Cu43     Cu     0.120020000000     0.390780000000     0.494670000000     0.847134   
Cu44     Cu     0.120880000000     0.350150000000     0.494770000000     0.846565   
Cu45     Cu     0.870170000000     0.350350000000     0.993700000000     0.846594   
Cu46     Cu     0.869830000000     0.390950000000     0.993760000000     0.845129   
Cu47     Cu     0.869880000000     0.349580000000     0.493700000000     0.845351   
Cu48     Cu     0.870090000000     0.390180000000     0.493760000000     0.846514   
H1       H      0.879360000000     0.404670000000     0.775410000000     0.0505522  
H2       H      0.878410000000     0.404710000000     0.854720000000     0.0262861  
H3       H      0.861270000000     0.336360000000     0.855290000000     0.0263492  
H4       H      0.860310000000     0.336030000000     0.776050000000     0.0504691  
H5       H      0.879460000000     0.335890000000     0.712040000000     0.0506044  
H6       H      0.878490000000     0.335840000000     0.632730000000     0.0262843  
H7       H      0.861120000000     0.404140000000     0.632180000000     0.0263084  
H8       H      0.860190000000     0.404460000000     0.711430000000     0.0505536  
H9       H      0.860520000000     0.335910000000     0.275400000000     0.0505477  
H10      H      0.861440000000     0.335880000000     0.354710000000     0.0262992  
H11      H      0.878900000000     0.404160000000     0.355250000000     0.0263583  
H12      H      0.879820000000     0.404460000000     0.275980000000     0.0506347  
H13      H      0.860400000000     0.404590000000     0.212060000000     0.0505484  
H14      H      0.861300000000     0.404620000000     0.132750000000     0.0262946  
H15      H      0.878990000000     0.336400000000     0.132210000000     0.0263556  
H16      H      0.879920000000     0.336100000000     0.211480000000     0.0506877  
H17      H      0.979280000000     0.403420000000     0.514670000000     0.0505935  
H18      H      0.939600000000     0.403470000000     0.512510000000     0.0262901  
H19      H      0.939340000000     0.335380000000     0.476280000000     0.0263377  
H20      H      0.979070000000     0.335080000000     0.474560000000     0.0506548  
H21      H      0.011430000000     0.334770000000     0.511940000000     0.0506022  
H22      H      0.051200000000     0.335160000000     0.510010000000     0.0261971  
H23      H      0.050720000000     0.403780000000     0.478050000000     0.0262677  
H24      H      0.011080000000     0.403700000000     0.476120000000     0.0506166  
H25      H      0.129810000000     0.336120000000     0.712680000000     0.0505505  
H26      H      0.128900000000     0.336300000000     0.633430000000     0.0262646  
H27      H      0.111770000000     0.404650000000     0.633470000000     0.0262404  
H28      H      0.110760000000     0.404760000000     0.712750000000     0.0505897  
H29      H      0.129870000000     0.404710000000     0.776760000000     0.0505301  
H30      H      0.128960000000     0.404520000000     0.856010000000     0.0262483  
H31      H      0.111690000000     0.336200000000     0.855920000000     0.0262488  
H32      H      0.110680000000     0.336110000000     0.776650000000     0.0505847  
H33      H      0.129700000000     0.404820000000     0.212500000000     0.0504485  
H34      H      0.128580000000     0.404650000000     0.133310000000     0.0259413  
H35      H      0.112610000000     0.336030000000     0.133400000000     0.0260076  
H36      H      0.111570000000     0.335900000000     0.212590000000     0.0505442  
H37      H      0.111570000000     0.404840000000     0.276800000000     0.0505211  
H38      H      0.112620000000     0.404720000000     0.355990000000     0.0260101  
H39      H      0.128550000000     0.336100000000     0.356130000000     0.0259545  
H40      H      0.129670000000     0.335910000000     0.276940000000     0.0504207  
H41      H      0.978960000000     0.405740000000     0.013680000000     0.0506153  
H42      H      0.939230000000     0.405360000000     0.011470000000     0.0263688  
H43      H      0.939740000000     0.337270000000     0.975250000000     0.0263025  
H44      H      0.979420000000     0.337400000000     0.973580000000     0.050584   
H45      H      0.011050000000     0.337150000000     0.012690000000     0.0506483  
H46      H      0.050680000000     0.337080000000     0.011220000000     0.0262232  
H47      H      0.051250000000     0.405700000000     0.979220000000     0.0262122  
H48      H      0.011480000000     0.406080000000     0.976830000000     0.0505752  
H49      H      0.730100000000     0.362500000000     0.562730000000     0.0527243  
H50      H      0.690010000000     0.362820000000     0.562640000000     0.0264851  
H51      H      0.689880000000     0.377800000000     0.425000000000     0.0264789  
H52      H      0.729970000000     0.378270000000     0.424680000000     0.0527277  
H53      H      0.760480000000     0.404890000000     0.477730000000     0.0527454  
H54      H      0.800590000000     0.404660000000     0.478430000000     0.026468   
H55      H      0.800360000000     0.335740000000     0.508560000000     0.0264809  
H56      H      0.760280000000     0.335770000000     0.509430000000     0.0526512  
H57      H      0.629830000000     0.511410000000     0.426060000000     0.0505604  
H58      H      0.628930000000     0.551110000000     0.426530000000     0.0263115  
H59      H      0.611620000000     0.550980000000     0.562900000000     0.0262846  
H60      H      0.610640000000     0.511260000000     0.563000000000     0.0506175  
H61      H      0.629910000000     0.479230000000     0.562800000000     0.0505683  
H62      H      0.629020000000     0.439520000000     0.562340000000     0.0263032  
H63      H      0.611570000000     0.439650000000     0.426030000000     0.0262916  
H64      H      0.610580000000     0.479370000000     0.425940000000     0.050597   
H65      H      0.730100000000     0.361820000000     0.063000000000     0.0527323  
H66      H      0.690000000000     0.362190000000     0.062880000000     0.0264919  
H67      H      0.689920000000     0.377130000000     0.925220000000     0.0265043  
H68      H      0.730010000000     0.377540000000     0.924930000000     0.0527245  
H69      H      0.760620000000     0.335270000000     0.009800000000     0.0526381  
H70      H      0.800720000000     0.335630000000     0.008980000000     0.0264571  
H71      H      0.800250000000     0.404550000000     0.978850000000     0.0265248  
H72      H      0.760170000000     0.404390000000     0.978090000000     0.0527697  
H73      H      0.610960000000     0.511000000000     0.063110000000     0.0506078  
H74      H      0.611860000000     0.550710000000     0.062970000000     0.0263092  
H75      H      0.629150000000     0.550840000000     0.926590000000     0.0262935  
H76      H      0.630130000000     0.511140000000     0.926160000000     0.0505226  
H77      H      0.610910000000     0.479090000000     0.926060000000     0.0506032  
H78      H      0.611850000000     0.439370000000     0.926190000000     0.0263248  
H79      H      0.629290000000     0.439260000000     0.062500000000     0.0263034  
H80      H      0.630220000000     0.478970000000     0.062930000000     0.0505225  
H81      H      0.511040000000     0.611340000000     0.426830000000     0.0506093  
H82      H      0.550760000000     0.612080000000     0.426950000000     0.0262868  
H83      H      0.550980000000     0.629350000000     0.563350000000     0.0263344  
H84      H      0.511270000000     0.630490000000     0.563790000000     0.0505052  
H85      H      0.479120000000     0.611410000000     0.563850000000     0.0506141  
H86      H      0.439410000000     0.612510000000     0.563660000000     0.0263024  
H87      H      0.439410000000     0.630030000000     0.427380000000     0.0263165  
H88      H      0.479120000000     0.630800000000     0.427020000000     0.0505534  
H89      H      0.479180000000     0.610370000000     0.063760000000     0.0506066  
H90      H      0.439450000000     0.611290000000     0.063550000000     0.0262984  
H91      H      0.439400000000     0.628750000000     0.927250000000     0.0263392  
H92      H      0.479100000000     0.629710000000     0.926900000000     0.0505277  
H93      H      0.511140000000     0.610460000000     0.926770000000     0.0506494  
H94      H      0.550850000000     0.611490000000     0.926900000000     0.0263131  
H95      H      0.550930000000     0.628800000000     0.063280000000     0.0262986  
H96      H      0.511220000000     0.629650000000     0.063700000000     0.0505799  
H97      H      0.260240000000     0.364850000000     0.424880000000     0.0528852  
H98      H      0.300330000000     0.364780000000     0.424960000000     0.0264854  
H99      H      0.300580000000     0.378590000000     0.563100000000     0.0265301  
H100     H      0.260480000000     0.379400000000     0.563430000000     0.0528289  
H101     H      0.230430000000     0.337130000000     0.481580000000     0.0528483  
H102     H      0.190380000000     0.336790000000     0.482600000000     0.0264219  
H103     H      0.189580000000     0.406300000000     0.506730000000     0.0264497  
H104     H      0.229720000000     0.406860000000     0.507210000000     0.0529105  
H105     H      0.511240000000     0.360400000000     0.425480000000     0.0505502  
H106     H      0.550950000000     0.361330000000     0.425830000000     0.0263087  
H107     H      0.550910000000     0.378570000000     0.562240000000     0.0263056  
H108     H      0.511190000000     0.379510000000     0.562460000000     0.0506224  
H109     H      0.479120000000     0.360290000000     0.562270000000     0.0505185  
H110     H      0.439410000000     0.361390000000     0.561930000000     0.0263138  
H111     H      0.439530000000     0.378960000000     0.425690000000     0.0262835  
H112     H      0.479240000000     0.379730000000     0.425480000000     0.0506572  
H113     H      0.360840000000     0.480070000000     0.426280000000     0.0505551  
H114     H      0.361760000000     0.440370000000     0.426290000000     0.0263366  
H115     H      0.379110000000     0.440110000000     0.562650000000     0.0263012  
H116     H      0.380060000000     0.479840000000     0.563200000000     0.0505791  
H117     H      0.360720000000     0.511860000000     0.563360000000     0.0506023  
H118     H      0.361470000000     0.551570000000     0.563260000000     0.0262785  
H119     H      0.378940000000     0.551810000000     0.426960000000     0.0262991  
H120     H      0.380070000000     0.512110000000     0.426520000000     0.0506341  
H121     H      0.260370000000     0.375880000000     0.063910000000     0.0528493  
H122     H      0.300460000000     0.375840000000     0.063570000000     0.0265072  
H123     H      0.300470000000     0.361750000000     0.925550000000     0.0265108  
H124     H      0.260370000000     0.361030000000     0.925480000000     0.0528148  
H125     H      0.230500000000     0.403470000000     0.007840000000     0.0529059  
H126     H      0.190450000000     0.403870000000     0.007050000000     0.0264446  
H127     H      0.189510000000     0.334420000000     0.982220000000     0.0264112  
H128     H      0.229650000000     0.333800000000     0.981490000000     0.0527427  
H129     H      0.479210000000     0.360360000000     0.062690000000     0.0505545  
H130     H      0.439500000000     0.361200000000     0.062410000000     0.0263263  
H131     H      0.439460000000     0.378750000000     0.926160000000     0.026295   
H132     H      0.479180000000     0.379780000000     0.925890000000     0.0505958  
H133     H      0.511220000000     0.360500000000     0.925810000000     0.0505699  
H134     H      0.550930000000     0.361360000000     0.926100000000     0.0263275  
H135     H      0.550960000000     0.378610000000     0.062510000000     0.0263085  
H136     H      0.511250000000     0.379630000000     0.062780000000     0.0506223  
H137     H      0.360070000000     0.510810000000     0.063530000000     0.0504869  
H138     H      0.361110000000     0.550520000000     0.063320000000     0.0263091  
H139     H      0.378490000000     0.550550000000     0.926980000000     0.0263323  
H140     H      0.379320000000     0.510830000000     0.926630000000     0.0505915  
H141     H      0.359990000000     0.478840000000     0.926560000000     0.0505359  
H142     H      0.360920000000     0.439130000000     0.926690000000     0.0263103  
H143     H      0.378250000000     0.438990000000     0.063050000000     0.0263062  
H144     H      0.379200000000     0.478700000000     0.063480000000     0.0506209  
H145     H      0.585720000000     0.760430000000     0.480150000000     0.0528031  
H146     H      0.585810000000     0.800530000000     0.480820000000     0.0264948  
H147     H      0.654960000000     0.800560000000     0.508890000000     0.0264059  
H148     H      0.655070000000     0.760470000000     0.509770000000     0.0527449  
H149     H      0.628250000000     0.730130000000     0.564020000000     0.0527941  
H150     H      0.627870000000     0.690040000000     0.563820000000     0.0264838  
H151     H      0.612980000000     0.690040000000     0.426140000000     0.0265125  
H152     H      0.612570000000     0.730130000000     0.425940000000     0.0527968  
H153     H      0.585670000000     0.760230000000     0.979680000000     0.0528067  
H154     H      0.585790000000     0.800320000000     0.980410000000     0.0264929  
H155     H      0.654860000000     0.800290000000     0.009130000000     0.0264799  
H156     H      0.654950000000     0.760200000000     0.009980000000     0.0526472  
H157     H      0.628160000000     0.729890000000     0.063900000000     0.0527497  
H158     H      0.627770000000     0.689800000000     0.063720000000     0.0264973  
H159     H      0.612830000000     0.689770000000     0.926070000000     0.0265105  
H160     H      0.612430000000     0.729870000000     0.925840000000     0.0527724  
H161     H      0.585190000000     0.879770000000     0.777150000000     0.0505799  
H162     H      0.585570000000     0.878750000000     0.856490000000     0.026312   
H163     H      0.653660000000     0.860580000000     0.855510000000     0.026264   
H164     H      0.653530000000     0.859660000000     0.776320000000     0.0505067  
H165     H      0.653780000000     0.879130000000     0.713020000000     0.0506029  
H166     H      0.653820000000     0.878280000000     0.633880000000     0.0261643  
H167     H      0.585190000000     0.862280000000     0.632990000000     0.026203   
H168     H      0.584840000000     0.861200000000     0.712380000000     0.0504718  
H169     H      0.587200000000     0.859670000000     0.213080000000     0.0506036  
H170     H      0.587060000000     0.860610000000     0.133890000000     0.0262401  
H171     H      0.655150000000     0.878750000000     0.132920000000     0.0263057  
H172     H      0.655540000000     0.879740000000     0.212260000000     0.0506059  
H173     H      0.655890000000     0.861160000000     0.277020000000     0.0504556  
H174     H      0.655540000000     0.862230000000     0.356410000000     0.0261883  
H175     H      0.586920000000     0.878220000000     0.355540000000     0.0262196  
H176     H      0.586940000000     0.879090000000     0.276400000000     0.0505349  
H177     H      0.655170000000     0.230130000000     0.479190000000     0.0526645  
H178     H      0.655030000000     0.190040000000     0.480090000000     0.0264556  
H179     H      0.585880000000     0.190110000000     0.508040000000     0.0264779  
H180     H      0.585800000000     0.230210000000     0.508700000000     0.0527953  
H181     H      0.612750000000     0.260500000000     0.563000000000     0.052803   
H182     H      0.613160000000     0.300590000000     0.562800000000     0.0265071  
H183     H      0.627900000000     0.300590000000     0.425050000000     0.0265051  
H184     H      0.628270000000     0.260490000000     0.424850000000     0.0527872  
H185     H      0.654840000000     0.011410000000     0.476550000000     0.0505524  
H186     H      0.654700000000     0.051070000000     0.478660000000     0.0259987  
H187     H      0.586050000000     0.051110000000     0.510220000000     0.0259987  
H188     H      0.585880000000     0.011450000000     0.512470000000     0.0505433  
H189     H      0.654830000000     0.979190000000     0.512570000000     0.0505706  
H190     H      0.654680000000     0.939530000000     0.510440000000     0.025983   
H191     H      0.586030000000     0.939520000000     0.478830000000     0.0259782  
H192     H      0.585880000000     0.979180000000     0.476590000000     0.050562   
H193     H      0.612550000000     0.260230000000     0.063330000000     0.052791   
H194     H      0.612950000000     0.300320000000     0.063100000000     0.0264966  
H195     H      0.627710000000     0.300300000000     0.925370000000     0.0264834  
H196     H      0.628100000000     0.260210000000     0.925190000000     0.0527708  
H197     H      0.654980000000     0.229900000000     0.979130000000     0.0527041  
H198     H      0.654900000000     0.189810000000     0.979940000000     0.0264594  
H199     H      0.585830000000     0.189780000000     0.008690000000     0.0265424  
H200     H      0.585700000000     0.229870000000     0.009450000000     0.0527586  
H201     H      0.655890000000     0.129290000000     0.712040000000     0.0504631  
H202     H      0.655550000000     0.128340000000     0.632650000000     0.0261856  
H203     H      0.586920000000     0.112380000000     0.633400000000     0.0261816  
H204     H      0.586940000000     0.111390000000     0.712520000000     0.0505815  
H205     H      0.587200000000     0.130690000000     0.776000000000     0.050575   
H206     H      0.587060000000     0.129600000000     0.855170000000     0.0262407  
H207     H      0.655150000000     0.111450000000     0.856010000000     0.026325   
H208     H      0.655540000000     0.110590000000     0.776670000000     0.0505796  
H209     H      0.653860000000     0.111230000000     0.276050000000     0.050555   
H210     H      0.653890000000     0.112230000000     0.355180000000     0.0261825  
H211     H      0.585260000000     0.128240000000     0.355940000000     0.0262083  
H212     H      0.584920000000     0.129180000000     0.276550000000     0.050507   
H213     H      0.585260000000     0.110480000000     0.211920000000     0.0505673  
H214     H      0.585640000000     0.111390000000     0.132580000000     0.0263264  
H215     H      0.653730000000     0.129540000000     0.133430000000     0.0262371  
H216     H      0.653600000000     0.130570000000     0.212610000000     0.05059    
H217     H      0.654660000000     0.011070000000     0.013810000000     0.0507077  
H218     H      0.654520000000     0.050790000000     0.011910000000     0.026381   
H219     H      0.586290000000     0.050770000000     0.976710000000     0.0263675  
H220     H      0.586150000000     0.011050000000     0.974980000000     0.0506382  
H221     H      0.586150000000     0.979070000000     0.013950000000     0.0506761  
H222     H      0.586280000000     0.939350000000     0.012250000000     0.0263706  
H223     H      0.654500000000     0.939300000000     0.976970000000     0.0263738  
H224     H      0.654650000000     0.979020000000     0.975050000000     0.0506989  
H225     H      0.230050000000     0.586200000000     0.479010000000     0.0527958  
H226     H      0.189950000000     0.586230000000     0.479580000000     0.0265224  
H227     H      0.189800000000     0.655160000000     0.509620000000     0.0264831  
H228     H      0.229890000000     0.655330000000     0.510620000000     0.0526183  
H229     H      0.260410000000     0.613060000000     0.425900000000     0.0527446  
H230     H      0.300500000000     0.613570000000     0.426290000000     0.0264924  
H231     H      0.300310000000     0.628320000000     0.564030000000     0.0264978  
H232     H      0.260210000000     0.628590000000     0.564050000000     0.0527503  
H233     H      0.260260000000     0.628070000000     0.063990000000     0.0527389  
H234     H      0.300360000000     0.627550000000     0.063980000000     0.0264949  
H235     H      0.300470000000     0.612780000000     0.926250000000     0.0264968  
H236     H      0.260380000000     0.612510000000     0.925860000000     0.0527592  
H237     H      0.230030000000     0.654930000000     0.010550000000     0.052655   
H238     H      0.189940000000     0.654910000000     0.009530000000     0.0264494  
H239     H      0.189850000000     0.585980000000     0.979510000000     0.0264861  
H240     H      0.229940000000     0.585800000000     0.978960000000     0.0527349  
H241     H      0.110710000000     0.586270000000     0.776340000000     0.050658   
H242     H      0.111670000000     0.586390000000     0.855630000000     0.026287   
H243     H      0.129080000000     0.654670000000     0.855660000000     0.0262851  
H244     H      0.129990000000     0.654830000000     0.776380000000     0.0505562  
H245     H      0.110680000000     0.654850000000     0.712440000000     0.050628   
H246     H      0.111610000000     0.654730000000     0.633150000000     0.0263155  
H247     H      0.129050000000     0.586450000000     0.633090000000     0.0263202  
H248     H      0.129980000000     0.586290000000     0.712370000000     0.0505402  
H249     H      0.110780000000     0.586280000000     0.276380000000     0.0506101  
H250     H      0.111730000000     0.586430000000     0.355660000000     0.0263393  
H251     H      0.129090000000     0.654720000000     0.355630000000     0.0262748  
H252     H      0.130020000000     0.654860000000     0.276350000000     0.0505471  
H253     H      0.110760000000     0.654850000000     0.212390000000     0.0506122  
H254     H      0.111690000000     0.654700000000     0.133100000000     0.0263202  
H255     H      0.129080000000     0.586410000000     0.133130000000     0.0263175  
H256     H      0.130030000000     0.586280000000     0.212410000000     0.0505237  
H257     H      0.760330000000     0.585890000000     0.510560000000     0.0527798  
H258     H      0.800420000000     0.586000000000     0.509740000000     0.0265057  
H259     H      0.800390000000     0.654930000000     0.479690000000     0.0264482  
H260     H      0.760300000000     0.655020000000     0.478930000000     0.0526952  
H261     H      0.729980000000     0.612560000000     0.563790000000     0.0527498  
H262     H      0.689890000000     0.612960000000     0.563620000000     0.0264918  
H263     H      0.689860000000     0.627940000000     0.425990000000     0.0264903  
H264     H      0.729950000000     0.628330000000     0.425740000000     0.0527235  
H265     H      0.011140000000     0.654780000000     0.475050000000     0.0506784  
H266     H      0.050850000000     0.654660000000     0.476880000000     0.0263467  
H267     H      0.050890000000     0.586380000000     0.511660000000     0.0263108  
H268     H      0.011180000000     0.586220000000     0.513560000000     0.0506657  
H269     H      0.979120000000     0.586210000000     0.475120000000     0.0505989  
H270     H      0.939400000000     0.586350000000     0.477080000000     0.026362   
H271     H      0.939420000000     0.654630000000     0.511880000000     0.026321   
H272     H      0.979130000000     0.654770000000     0.513650000000     0.0506294  
H273     H      0.760360000000     0.585860000000     0.010480000000     0.0527143  
H274     H      0.800450000000     0.585990000000     0.009650000000     0.026535   
H275     H      0.800400000000     0.654920000000     0.979580000000     0.0264603  
H276     H      0.760310000000     0.654990000000     0.978840000000     0.0526454  
H277     H      0.729950000000     0.628280000000     0.925680000000     0.0527326  
H278     H      0.689860000000     0.627850000000     0.925950000000     0.0265015  
H279     H      0.689930000000     0.612900000000     0.063600000000     0.0264841  
H280     H      0.730020000000     0.612540000000     0.063740000000     0.0527433  
H281     H      0.860350000000     0.586210000000     0.776610000000     0.0505707  
H282     H      0.861270000000     0.586360000000     0.855880000000     0.0263098  
H283     H      0.878640000000     0.654650000000     0.855870000000     0.0263046  
H284     H      0.879600000000     0.654780000000     0.776580000000     0.0506085  
H285     H      0.860330000000     0.654760000000     0.712620000000     0.0505432  
H286     H      0.861250000000     0.654610000000     0.633340000000     0.0263196  
H287     H      0.878670000000     0.586330000000     0.633350000000     0.0263069  
H288     H      0.879620000000     0.586200000000     0.712640000000     0.0506036  
H289     H      0.879540000000     0.586210000000     0.212640000000     0.0506015  
H290     H      0.878630000000     0.586350000000     0.133360000000     0.0263484  
H291     H      0.861200000000     0.654630000000     0.133340000000     0.0263392  
H292     H      0.860240000000     0.654770000000     0.212620000000     0.0505121  
H293     H      0.879500000000     0.654780000000     0.276590000000     0.0506705  
H294     H      0.878560000000     0.654650000000     0.355880000000     0.0263103  
H295     H      0.861180000000     0.586350000000     0.355870000000     0.026295   
H296     H      0.860250000000     0.586210000000     0.276590000000     0.0505457  
H297     H      0.979130000000     0.654850000000     0.013760000000     0.05068    
H298     H      0.939420000000     0.654690000000     0.011960000000     0.0263501  
H299     H      0.939440000000     0.586410000000     0.977170000000     0.0263492  
H300     H      0.979150000000     0.586290000000     0.975230000000     0.0506068  
H301     H      0.011180000000     0.586300000000     0.013740000000     0.050644   
H302     H      0.050890000000     0.586440000000     0.011820000000     0.0263808  
H303     H      0.050890000000     0.654720000000     0.977020000000     0.0263142  
H304     H      0.011170000000     0.654860000000     0.975210000000     0.0506379  
H305     H      0.334960000000     0.230680000000     0.508310000000     0.052616   
H306     H      0.335180000000     0.190590000000     0.507370000000     0.0264468  
H307     H      0.404130000000     0.190810000000     0.477560000000     0.0264856  
H308     H      0.404120000000     0.230900000000     0.476910000000     0.052773   
H309     H      0.377230000000     0.261290000000     0.423760000000     0.052754   
H310     H      0.376850000000     0.301380000000     0.424310000000     0.0265192  
H311     H      0.362110000000     0.301080000000     0.562050000000     0.0264876  
H312     H      0.361700000000     0.260990000000     0.561900000000     0.0527664  
H313     H      0.335620000000     0.229680000000     0.008750000000     0.0526806  
H314     H      0.335620000000     0.189590000000     0.007680000000     0.0264646  
H315     H      0.404540000000     0.189490000000     0.977450000000     0.0265057  
H316     H      0.404730000000     0.229580000000     0.976950000000     0.052712   
H317     H      0.378060000000     0.260150000000     0.924140000000     0.0527587  
H318     H      0.377730000000     0.300240000000     0.924800000000     0.0264714  
H319     H      0.362930000000     0.299870000000     0.062520000000     0.0265069  
H320     H      0.362480000000     0.259780000000     0.062260000000     0.0527915  
H321     H      0.335550000000     0.130080000000     0.774820000000     0.0505509  
H322     H      0.335740000000     0.128840000000     0.854070000000     0.026326   
H323     H      0.404040000000     0.111470000000     0.853650000000     0.0262816  
H324     H      0.404130000000     0.110850000000     0.774340000000     0.0506139  
H325     H      0.404080000000     0.130470000000     0.710750000000     0.0505425  
H326     H      0.403920000000     0.129860000000     0.631460000000     0.0262784  
H327     H      0.335650000000     0.112350000000     0.631240000000     0.0263172  
H328     H      0.335540000000     0.111100000000     0.710510000000     0.0506471  
H329     H      0.335750000000     0.110800000000     0.210730000000     0.0505887  
H330     H      0.335900000000     0.111490000000     0.131440000000     0.0263313  
H331     H      0.404180000000     0.128920000000     0.131240000000     0.0263006  
H332     H      0.404320000000     0.130100000000     0.210510000000     0.0505127  
H333     H      0.404320000000     0.111120000000     0.274780000000     0.0506028  
H334     H      0.404140000000     0.112320000000     0.354050000000     0.026334   
H335     H      0.335820000000     0.129600000000     0.353690000000     0.0262791  
H336     H      0.335720000000     0.130280000000     0.274400000000     0.0506003  
H337     H      0.377510000000     0.730720000000     0.564970000000     0.0527113  
H338     H      0.377150000000     0.690620000000     0.564600000000     0.0264912  
H339     H      0.362330000000     0.690750000000     0.426900000000     0.0265085  
H340     H      0.361910000000     0.730840000000     0.426850000000     0.0527386  
H341     H      0.404290000000     0.761070000000     0.511880000000     0.0527895  
H342     H      0.404250000000     0.801160000000     0.511050000000     0.0264827  
H343     H      0.335340000000     0.801260000000     0.480820000000     0.0264612  
H344     H      0.335180000000     0.761160000000     0.480070000000     0.052664   
H345     H      0.404360000000     0.979820000000     0.475410000000     0.0506401  
H346     H      0.404190000000     0.940120000000     0.477970000000     0.0263546  
H347     H      0.335880000000     0.940310000000     0.512530000000     0.0263561  
H348     H      0.335760000000     0.980030000000     0.513700000000     0.0506518  
H349     H      0.335790000000     0.011850000000     0.474500000000     0.0506903  
H350     H      0.335890000000     0.051570000000     0.475640000000     0.0263588  
H351     H      0.404160000000     0.051790000000     0.510570000000     0.0263194  
H352     H      0.404330000000     0.012080000000     0.513170000000     0.0506401  
H353     H      0.404480000000     0.760000000000     0.011660000000     0.0527265  
H354     H      0.404360000000     0.800100000000     0.010900000000     0.0265465  
H355     H      0.335410000000     0.800080000000     0.981050000000     0.026463   
H356     H      0.335320000000     0.759990000000     0.980230000000     0.0526435  
H357     H      0.377740000000     0.729580000000     0.064870000000     0.0527224  
H358     H      0.377380000000     0.689480000000     0.064490000000     0.0265025  
H359     H      0.362550000000     0.689630000000     0.926790000000     0.0265197  
H360     H      0.362110000000     0.729720000000     0.926770000000     0.0527322  
H361     H      0.404080000000     0.860300000000     0.777530000000     0.0505063  
H362     H      0.403940000000     0.860910000000     0.856830000000     0.0263057  
H363     H      0.335660000000     0.878370000000     0.857110000000     0.0263235  
H364     H      0.335520000000     0.879630000000     0.777850000000     0.0505694  
H365     H      0.335520000000     0.860700000000     0.713530000000     0.0505462  
H366     H      0.335680000000     0.861970000000     0.634280000000     0.0262922  
H367     H      0.403990000000     0.879270000000     0.634630000000     0.026317   
H368     H      0.404110000000     0.879880000000     0.713930000000     0.0506298  
H369     H      0.335730000000     0.879990000000     0.277550000000     0.050604   
H370     H      0.335850000000     0.879280000000     0.356850000000     0.0263265  
H371     H      0.404120000000     0.861800000000     0.357100000000     0.0262976  
H372     H      0.404270000000     0.860640000000     0.277830000000     0.0505763  
H373     H      0.404300000000     0.879690000000     0.213580000000     0.0505939  
H374     H      0.404140000000     0.878510000000     0.134310000000     0.0263216  
H375     H      0.335830000000     0.861170000000     0.134590000000     0.0263032  
H376     H      0.335710000000     0.860480000000     0.213880000000     0.0505444  
H377     H      0.335630000000     0.010770000000     0.974590000000     0.0506182  
H378     H      0.335790000000     0.050500000000     0.975790000000     0.0263493  
H379     H      0.404100000000     0.050600000000     0.010390000000     0.0263784  
H380     H      0.404220000000     0.010900000000     0.012920000000     0.0506413  
H381     H      0.404180000000     0.978710000000     0.974990000000     0.0506468  
H382     H      0.404040000000     0.939020000000     0.977580000000     0.0263472  
H383     H      0.335780000000     0.939170000000     0.012560000000     0.0263508  
H384     H      0.335650000000     0.978900000000     0.013700000000     0.0506527  
N1       N      0.869860000000     0.370550000000     0.860910000000    -0.192636   
N2       N      0.869810000000     0.369980000000     0.626550000000    -0.192705   
N3       N      0.870160000000     0.370010000000     0.360900000000    -0.192643   
N4       N      0.870140000000     0.370520000000     0.126560000000    -0.192703   
N5       N      0.936520000000     0.369450000000     0.494280000000    -0.192692   
N6       N      0.053920000000     0.369490000000     0.494180000000    -0.192705   
N7       N      0.120340000000     0.370480000000     0.627550000000    -0.192753   
N8       N      0.120330000000     0.370360000000     0.861870000000    -0.192787   
N9       N      0.120590000000     0.370340000000     0.127490000000    -0.192963   
N10      N      0.120580000000     0.370410000000     0.361920000000    -0.192842   
N11      N      0.936530000000     0.371280000000     0.993460000000    -0.192643   
N12      N      0.053920000000     0.371360000000     0.995070000000    -0.192731   
N13      N      0.686970000000     0.370290000000     0.493820000000    -0.192581   
N14      N      0.803450000000     0.370190000000     0.493500000000    -0.192703   
N15      N      0.620280000000     0.554000000000     0.494740000000    -0.192719   
N16      N      0.620300000000     0.436630000000     0.494170000000    -0.192707   
N17      N      0.686980000000     0.369670000000     0.994070000000    -0.192671   
N18      N      0.803460000000     0.370110000000     0.993920000000    -0.192555   
N19      N      0.620500000000     0.553740000000     0.994780000000    -0.192697   
N20      N      0.620560000000     0.436360000000     0.994340000000    -0.192574   
N21      N      0.553830000000     0.620700000000     0.495130000000    -0.192695   
N22      N      0.436450000000     0.621270000000     0.495520000000    -0.192681   
N23      N      0.436460000000     0.620010000000     0.995410000000    -0.192741   
N24      N      0.553850000000     0.620150000000     0.995080000000    -0.192713   
N25      N      0.303430000000     0.371620000000     0.494030000000    -0.192574   
N26      N      0.187000000000     0.371520000000     0.494700000000    -0.192591   
N27      N      0.553890000000     0.369960000000     0.494040000000    -0.1927     
N28      N      0.436510000000     0.370200000000     0.493810000000    -0.192622   
N29      N      0.370430000000     0.437280000000     0.494450000000    -0.192708   
N30      N      0.370180000000     0.554650000000     0.495120000000    -0.192716   
N31      N      0.303440000000     0.368850000000     0.994540000000    -0.192572   
N32      N      0.187000000000     0.369180000000     0.994610000000    -0.192719   
N33      N      0.436520000000     0.369970000000     0.994280000000    -0.192696   
N34      N      0.553910000000     0.369980000000     0.994310000000    -0.192711   
N35      N      0.369810000000     0.553500000000     0.995160000000    -0.192685   
N36      N      0.369600000000     0.436100000000     0.994850000000    -0.192582   
N37      N      0.620390000000     0.803520000000     0.494840000000    -0.192702   
N38      N      0.620420000000     0.687070000000     0.494980000000    -0.192555   
N39      N      0.620330000000     0.803280000000     0.994770000000    -0.192586   
N40      N      0.620300000000     0.686810000000     0.994900000000    -0.192654   
N41      N      0.619650000000     0.869720000000     0.861900000000    -0.192727   
N42      N      0.619530000000     0.870210000000     0.627540000000    -0.192757   
N43      N      0.621070000000     0.869730000000     0.127510000000    -0.192736   
N44      N      0.621210000000     0.870160000000     0.361880000000    -0.192711   
N45      N      0.620450000000     0.187100000000     0.494080000000    -0.192677   
N46      N      0.620530000000     0.303560000000     0.493930000000    -0.1926     
N47      N      0.620380000000     0.054030000000     0.494440000000    -0.192853   
N48      N      0.620360000000     0.936590000000     0.494630000000    -0.19291    
N49      N      0.620330000000     0.303280000000     0.994230000000    -0.192621   
N50      N      0.620370000000     0.186820000000     0.994320000000    -0.192626   
N51      N      0.621210000000     0.120440000000     0.627120000000    -0.192783   
N52      N      0.621070000000     0.120460000000     0.861490000000    -0.192641   
N53      N      0.619600000000     0.120310000000     0.361460000000    -0.192676   
N54      N      0.619720000000     0.120410000000     0.127100000000    -0.192751   
N55      N      0.620410000000     0.053740000000     0.994300000000    -0.192592   
N56      N      0.620390000000     0.936360000000     0.994620000000    -0.192619   
N57      N      0.186900000000     0.620690000000     0.494590000000    -0.19261    
N58      N      0.303380000000     0.620960000000     0.495170000000    -0.19268    
N59      N      0.303390000000     0.620160000000     0.995130000000    -0.192604   
N60      N      0.186920000000     0.620450000000     0.994510000000    -0.192636   
N61      N      0.120380000000     0.620530000000     0.861550000000    -0.19269    
N62      N      0.120330000000     0.620590000000     0.627210000000    -0.192594   
N63      N      0.120410000000     0.620580000000     0.361560000000    -0.192669   
N64      N      0.120380000000     0.620560000000     0.127210000000    -0.192616   
N65      N      0.803380000000     0.620470000000     0.494710000000    -0.192672   
N66      N      0.686900000000     0.620450000000     0.494810000000    -0.192668   
N67      N      0.053830000000     0.620520000000     0.494280000000    -0.19267    
N68      N      0.936450000000     0.620490000000     0.494490000000    -0.192651   
N69      N      0.803400000000     0.620460000000     0.994620000000    -0.192636   
N70      N      0.686920000000     0.620370000000     0.994780000000    -0.192692   
N71      N      0.869950000000     0.620510000000     0.861780000000    -0.192614   
N72      N      0.869960000000     0.620470000000     0.627440000000    -0.192605   
N73      N      0.869920000000     0.620490000000     0.127440000000    -0.192529   
N74      N      0.869870000000     0.620500000000     0.361780000000    -0.192681   
N75      N      0.936470000000     0.620550000000     0.994570000000    -0.192677   
N76      N      0.053850000000     0.620580000000     0.994410000000    -0.192744   
N77      N      0.369660000000     0.187720000000     0.492470000000    -0.192591   
N78      N      0.369490000000     0.304210000000     0.493220000000    -0.1925     
N79      N      0.370070000000     0.186570000000     0.992560000000    -0.192655   
N80      N      0.370320000000     0.303030000000     0.993690000000    -0.192708   
N81      N      0.369900000000     0.120140000000     0.859770000000    -0.192615   
N82      N      0.369790000000     0.121120000000     0.625440000000    -0.192643   
N83      N      0.370040000000     0.120200000000     0.125430000000    -0.192694   
N84      N      0.369970000000     0.120970000000     0.359780000000    -0.192664   
N85      N      0.369750000000     0.687710000000     0.495740000000    -0.192653   
N86      N      0.369800000000     0.804180000000     0.495920000000    -0.192569   
N87      N      0.370030000000     0.937250000000     0.495270000000    -0.192644   
N88      N      0.370020000000     0.054640000000     0.493080000000    -0.192688   
N89      N      0.369880000000     0.803060000000     0.995960000000    -0.192556   
N90      N      0.369960000000     0.686580000000     0.995630000000    -0.192524   
N91      N      0.369800000000     0.869630000000     0.862880000000    -0.192639   
N92      N      0.369840000000     0.870630000000     0.628540000000    -0.19268    
N93      N      0.369980000000     0.870550000000     0.362880000000    -0.192615   
N94      N      0.369980000000     0.869830000000     0.128540000000    -0.192626   
N95      N      0.369950000000     0.053510000000     0.993050000000    -0.19268    
N96      N      0.369910000000     0.936140000000     0.995120000000    -0.192574   
O1       O      0.351590000000     0.903000000000     0.998040000000    -0.397293   
O2       O      0.351570000000     0.836220000000     0.993540000000    -0.397333   
O3       O      0.351630000000     0.868470000000     0.062420000000    -0.397337   
O4       O      0.351530000000     0.870770000000     0.929120000000    -0.39731    
O5       O      0.388160000000     0.868310000000     0.929000000000    -0.397347   
O6       O      0.388260000000     0.870910000000     0.062290000000    -0.397303   
O7       O      0.388200000000     0.836220000000     0.998180000000    -0.397605   
O8       O      0.388210000000     0.902970000000     0.993010000000    -0.39765    
O9       O      0.351540000000     0.837370000000     0.493400000000    -0.397334   
O10      O      0.351660000000     0.904140000000     0.498010000000    -0.397501   
O11      O      0.351640000000     0.871920000000     0.429030000000    -0.397465   
O12      O      0.351560000000     0.869560000000     0.562320000000    -0.397381   
O13      O      0.388190000000     0.871950000000     0.562400000000    -0.397372   
O14      O      0.388260000000     0.869410000000     0.429100000000    -0.397473   
O15      O      0.388290000000     0.904070000000     0.493180000000    -0.397327   
O16      O      0.388170000000     0.837310000000     0.498230000000    -0.39751    
O17      O      0.351650000000     0.086660000000     0.990290000000    -0.39738    
O18      O      0.351710000000     0.153440000000     0.994950000000    -0.397261   
O19      O      0.351630000000     0.121250000000     0.926000000000    -0.397434   
O20      O      0.351710000000     0.118870000000     0.059280000000    -0.397503   
O21      O      0.388330000000     0.121290000000     0.059220000000    -0.397484   
O22      O      0.388260000000     0.118780000000     0.925910000000    -0.397242   
O23      O      0.388340000000     0.153390000000     0.990110000000    -0.397544   
O24      O      0.388280000000     0.086650000000     0.995120000000    -0.397633   
O25      O      0.351640000000     0.087740000000     0.490230000000    -0.39745    
O26      O      0.351450000000     0.154510000000     0.494810000000    -0.397584   
O27      O      0.351600000000     0.122280000000     0.425890000000    -0.397388   
O28      O      0.351510000000     0.119940000000     0.559200000000    -0.397438   
O29      O      0.388130000000     0.122490000000     0.559310000000    -0.397412   
O30      O      0.388230000000     0.119930000000     0.426030000000    -0.397553   
O31      O      0.388080000000     0.154610000000     0.490180000000    -0.397357   
O32      O      0.388260000000     0.087840000000     0.495260000000    -0.39723    
O33      O      0.903310000000     0.638840000000     0.997080000000    -0.39718    
O34      O      0.836540000000     0.638790000000     0.992240000000    -0.39744    
O35      O      0.868700000000     0.638810000000     0.061270000000    -0.397252   
O36      O      0.871150000000     0.638820000000     0.927970000000    -0.397346   
O37      O      0.868730000000     0.602190000000     0.927960000000    -0.39739    
O38      O      0.871170000000     0.602180000000     0.061250000000    -0.397303   
O39      O      0.836570000000     0.602160000000     0.996980000000    -0.397429   
O40      O      0.903330000000     0.602210000000     0.992150000000    -0.39735    
O41      O      0.836530000000     0.638790000000     0.492290000000    -0.397396   
O42      O      0.903300000000     0.638800000000     0.497020000000    -0.397132   
O43      O      0.871110000000     0.638800000000     0.427980000000    -0.397399   
O44      O      0.868720000000     0.638790000000     0.561270000000    -0.397394   
O45      O      0.871170000000     0.602160000000     0.561240000000    -0.397324   
O46      O      0.868670000000     0.602180000000     0.427950000000    -0.397609   
O47      O      0.903300000000     0.602170000000     0.492090000000    -0.397404   
O48      O      0.836540000000     0.602160000000     0.497030000000    -0.397476   
O49      O      0.087010000000     0.638870000000     0.991910000000    -0.397468   
O50      O      0.153780000000     0.638810000000     0.996770000000    -0.397675   
O51      O      0.121620000000     0.638840000000     0.927730000000    -0.397549   
O52      O      0.119170000000     0.638860000000     0.061010000000    -0.397423   
O53      O      0.121580000000     0.602230000000     0.061050000000    -0.397437   
O54      O      0.119150000000     0.602220000000     0.927750000000    -0.397413   
O55      O      0.153740000000     0.602190000000     0.992040000000    -0.397675   
O56      O      0.086990000000     0.602250000000     0.996840000000    -0.397611   
O57      O      0.086960000000     0.638870000000     0.491860000000    -0.397267   
O58      O      0.153720000000     0.638950000000     0.496820000000    -0.39749    
O59      O      0.121590000000     0.638900000000     0.427720000000    -0.397394   
O60      O      0.119090000000     0.638910000000     0.561020000000    -0.397344   
O61      O      0.121580000000     0.602280000000     0.561040000000    -0.397402   
O62      O      0.119190000000     0.602270000000     0.427750000000    -0.397405   
O63      O      0.153770000000     0.602320000000     0.492080000000    -0.397405   
O64      O      0.087000000000     0.602240000000     0.496780000000    -0.397321   
O65      O      0.602100000000     0.086890000000     0.991460000000    -0.397318   
O66      O      0.602050000000     0.153660000000     0.996370000000    -0.397294   
O67      O      0.602450000000     0.121550000000     0.927320000000    -0.397496   
O68      O      0.601710000000     0.119030000000     0.060590000000    -0.397189   
O69      O      0.638330000000     0.121540000000     0.061280000000    -0.397584   
O70      O      0.639080000000     0.119060000000     0.928000000000    -0.397198   
O71      O      0.638700000000     0.153670000000     0.992250000000    -0.397493   
O72      O      0.638700000000     0.086900000000     0.997110000000    -0.39725    
O73      O      0.602030000000     0.087170000000     0.494480000000    -0.397664   
O74      O      0.602100000000     0.153960000000     0.496080000000    -0.39758    
O75      O      0.601610000000     0.121160000000     0.428120000000    -0.396816   
O76      O      0.602520000000     0.119930000000     0.561450000000    -0.398601   
O77      O      0.639200000000     0.121210000000     0.560470000000    -0.396825   
O78      O      0.638300000000     0.119830000000     0.427130000000    -0.398377   
O79      O      0.638760000000     0.153940000000     0.492330000000    -0.397716   
O80      O      0.638750000000     0.087150000000     0.494270000000    -0.39775    
O81      O      0.602080000000     0.903210000000     0.997520000000    -0.397547   
O82      O      0.602020000000     0.836450000000     0.992690000000    -0.397484   
O83      O      0.602440000000     0.868580000000     0.061700000000    -0.397608   
O84      O      0.601660000000     0.871060000000     0.928430000000    -0.397326   
O85      O      0.638280000000     0.868540000000     0.927700000000    -0.397533   
O86      O      0.639060000000     0.871060000000     0.060970000000    -0.397345   
O87      O      0.638670000000     0.836430000000     0.996770000000    -0.397444   
O88      O      0.638670000000     0.903200000000     0.991830000000    -0.397458   
O89      O      0.602000000000     0.903460000000     0.494540000000    -0.397618   
O90      O      0.602050000000     0.836670000000     0.492860000000    -0.39771    
O91      O      0.601560000000     0.869440000000     0.560860000000    -0.396969   
O92      O      0.602490000000     0.870710000000     0.427530000000    -0.398432   
O93      O      0.639180000000     0.869410000000     0.428550000000    -0.396677   
O94      O      0.638240000000     0.870750000000     0.561890000000    -0.398544   
O95      O      0.638710000000     0.836680000000     0.496650000000    -0.397655   
O96      O      0.638720000000     0.903460000000     0.494780000000    -0.397733   
O97      O      0.336580000000     0.368230000000     0.957830000000    -0.397358   
O98      O      0.403350000000     0.371060000000     0.957730000000    -0.397227   
O99      O      0.371340000000     0.336280000000     0.957450000000    -0.397519   
O100     O      0.368540000000     0.403010000000     0.958050000000    -0.397558   
O101     O      0.370940000000     0.402880000000     0.031180000000    -0.397193   
O102     O      0.369100000000     0.336080000000     0.030590000000    -0.397468   
O103     O      0.403390000000     0.368540000000     0.030840000000    -0.397541   
O104     O      0.336620000000     0.370330000000     0.030980000000    -0.397564   
O105     O      0.336560000000     0.370070000000     0.457400000000    -0.397543   
O106     O      0.403350000000     0.371710000000     0.457290000000    -0.397574   
O107     O      0.370790000000     0.337460000000     0.456990000000    -0.397594   
O108     O      0.369080000000     0.404230000000     0.457640000000    -0.397791   
O109     O      0.371470000000     0.404050000000     0.530760000000    -0.397321   
O110     O      0.368550000000     0.337280000000     0.530130000000    -0.397293   
O111     O      0.403360000000     0.369180000000     0.530390000000    -0.397564   
O112     O      0.336620000000     0.372140000000     0.530550000000    -0.397506   
O113     O      0.336520000000     0.621190000000     0.031830000000    -0.397467   
O114     O      0.403300000000     0.618780000000     0.031960000000    -0.397288   
O115     O      0.371090000000     0.653380000000     0.032050000000    -0.397336   
O116     O      0.368680000000     0.586620000000     0.031800000000    -0.397467   
O117     O      0.371100000000     0.586680000000     0.958680000000    -0.397277   
O118     O      0.368830000000     0.653460000000     0.958910000000    -0.397421   
O119     O      0.403330000000     0.621230000000     0.958850000000    -0.397765   
O120     O      0.336570000000     0.618960000000     0.958690000000    -0.397552   
O121     O      0.336500000000     0.622180000000     0.531870000000    -0.39748    
O122     O      0.403280000000     0.620030000000     0.532050000000    -0.397301   
O123     O      0.370950000000     0.654510000000     0.532140000000    -0.39754    
O124     O      0.368800000000     0.587750000000     0.531820000000    -0.397613   
O125     O      0.371250000000     0.587850000000     0.458700000000    -0.397493   
O126     O      0.368700000000     0.654600000000     0.459000000000    -0.397464   
O127     O      0.403320000000     0.622510000000     0.458930000000    -0.397619   
O128     O      0.336570000000     0.619970000000     0.458730000000    -0.397525   
O129     O      0.653850000000     0.368590000000     0.030730000000    -0.397312   
O130     O      0.587070000000     0.371080000000     0.030850000000    -0.397292   
O131     O      0.619240000000     0.336440000000     0.030790000000    -0.397583   
O132     O      0.621720000000     0.403190000000     0.030840000000    -0.397452   
O133     O      0.619300000000     0.403220000000     0.957710000000    -0.397248   
O134     O      0.621500000000     0.336440000000     0.957660000000    -0.397534   
O135     O      0.587040000000     0.368720000000     0.957720000000    -0.397662   
O136     O      0.653800000000     0.370900000000     0.957600000000    -0.397524   
O137     O      0.621630000000     0.336720000000     0.457370000000    -0.397488   
O138     O      0.619140000000     0.403500000000     0.457490000000    -0.397269   
O139     O      0.653780000000     0.371350000000     0.457340000000    -0.397529   
O140     O      0.587030000000     0.368850000000     0.457460000000    -0.397599   
O141     O      0.587050000000     0.371200000000     0.530590000000    -0.397309   
O142     O      0.653840000000     0.369020000000     0.530470000000    -0.397421   
O143     O      0.621560000000     0.403460000000     0.530620000000    -0.397576   
O144     O      0.619370000000     0.336710000000     0.530500000000    -0.397762   
O145     O      0.653750000000     0.621480000000     0.958260000000    -0.397481   
O146     O      0.586980000000     0.619030000000     0.958410000000    -0.39727    
O147     O      0.619160000000     0.653650000000     0.958340000000    -0.397494   
O148     O      0.621610000000     0.586900000000     0.958290000000    -0.397585   
O149     O      0.619260000000     0.586880000000     0.031420000000    -0.397317   
O150     O      0.621500000000     0.653660000000     0.031470000000    -0.397279   
O151     O      0.587020000000     0.621400000000     0.031540000000    -0.3975     
O152     O      0.653780000000     0.619170000000     0.031390000000    -0.397539   
O153     O      0.653730000000     0.621650000000     0.458290000000    -0.397505   
O154     O      0.586950000000     0.619410000000     0.458450000000    -0.39726    
O155     O      0.619240000000     0.653920000000     0.458400000000    -0.397614   
O156     O      0.621480000000     0.587170000000     0.458280000000    -0.397659   
O157     O      0.619140000000     0.587130000000     0.531410000000    -0.397381   
O158     O      0.621580000000     0.653900000000     0.531530000000    -0.397444   
O159     O      0.587010000000     0.621760000000     0.531580000000    -0.397626   
O160     O      0.653760000000     0.619320000000     0.531420000000    -0.397558   
O161     O      0.153500000000     0.351380000000     0.993380000000    -0.396957   
O162     O      0.086750000000     0.352570000000     0.996160000000    -0.39893    
O163     O      0.119330000000     0.352010000000     0.928030000000    -0.397686   
O164     O      0.120380000000     0.351970000000     0.061370000000    -0.397845   
O165     O      0.120680000000     0.388680000000     0.061340000000    -0.397798   
O166     O      0.121450000000     0.388660000000     0.928030000000    -0.397911   
O167     O      0.087380000000     0.389250000000     0.993530000000    -0.39642    
O168     O      0.154200000000     0.388060000000     0.995750000000    -0.398335   
O169     O      0.153520000000     0.389360000000     0.495970000000    -0.397033   
O170     O      0.086760000000     0.388260000000     0.493240000000    -0.398921   
O171     O      0.119360000000     0.388800000000     0.561370000000    -0.397711   
O172     O      0.120390000000     0.388800000000     0.428020000000    -0.397838   
O173     O      0.120650000000     0.352080000000     0.428090000000    -0.397762   
O174     O      0.121410000000     0.352150000000     0.561410000000    -0.397904   
O175     O      0.087360000000     0.351580000000     0.495880000000    -0.396575   
O176     O      0.154170000000     0.352680000000     0.493700000000    -0.398438   
O177     O      0.836760000000     0.352040000000     0.996250000000    -0.397207   
O178     O      0.903540000000     0.352670000000     0.991070000000    -0.397245   
O179     O      0.871460000000     0.352310000000     0.060310000000    -0.397734   
O180     O      0.868840000000     0.352310000000     0.927130000000    -0.397992   
O181     O      0.871020000000     0.388950000000     0.927050000000    -0.39688    
O182     O      0.868690000000     0.388910000000     0.060450000000    -0.39699    
O183     O      0.903220000000     0.389290000000     0.996100000000    -0.39743    
O184     O      0.836470000000     0.388670000000     0.991480000000    -0.39765    
O185     O      0.836520000000     0.351750000000     0.495930000000    -0.397807   
O186     O      0.903270000000     0.351350000000     0.491430000000    -0.39743    
O187     O      0.871040000000     0.351580000000     0.560410000000    -0.396823   
O188     O      0.868760000000     0.351610000000     0.427010000000    -0.396943   
O189     O      0.871410000000     0.388220000000     0.427160000000    -0.397807   
O190     O      0.868740000000     0.388220000000     0.560340000000    -0.397873   
O191     O      0.903470000000     0.387970000000     0.496460000000    -0.397182   
O192     O      0.836690000000     0.388370000000     0.491160000000    -0.397275   


