data_structure

_audit_creation_method RASPA-1.0
_audit_creation_date 2023-5-23
_audit_author_name 'Poobodin Mano'

_cell_length_a    29.9007
_cell_length_b    30.0791
_cell_length_c    27.4364
_cell_angle_alpha 89.9997
_cell_angle_beta  90.0001
_cell_angle_gamma 89.9977
_cell_volume      24675.9

_symmetry_cell_setting          triclinic
_symmetry_space_group_name_Hall 'P 1'
_symmetry_space_group_name_H-M  'P 1'
_symmetry_Int_Tables_number     1

_symmetry_equiv_pos_as_xyz 'x,y,z'

loop_
_atom_site_label
_atom_site_type_symbol
_atom_site_fract_x
_atom_site_fract_y
_atom_site_fract_z
_atom_site_charge
C1       C      0.984870000000     0.401900000000     0.018160000000     0.470988   
C2       C      0.984470000000     0.570880000000     0.020040000000     0.484729   
C3       C      0.900350000000     0.485820000000     0.016010000000     0.478181   
C4       C      0.070230000000     0.485820000000     0.016330000000     0.478407   
C5       C      0.981290000000     0.429040000000     0.514790000000     0.485467   
C6       C      0.981550000000     0.598010000000     0.517190000000     0.471013   
C7       C      0.897040000000     0.514050000000     0.518980000000     0.476652   
C8       C      0.066920000000     0.514240000000     0.519150000000     0.480363   
C9       C      0.485060000000     0.399970000000     0.015560000000     0.471168   
C10      C      0.484910000000     0.569010000000     0.013640000000     0.4855     
C11      C      0.400350000000     0.484230000000     0.017620000000     0.477299   
C12      C      0.570410000000     0.483920000000     0.017120000000     0.479995   
C13      C      0.482280000000     0.430220000000     0.513540000000     0.485931   
C14      C      0.482230000000     0.599260000000     0.515560000000     0.47132    
C15      C      0.396850000000     0.515420000000     0.517530000000     0.480322   
C16      C      0.566900000000     0.514970000000     0.517900000000     0.477476   
C17      C      0.982890000000     0.896820000000     0.017850000000     0.40674    
C18      C      0.983040000000     0.074120000000     0.017050000000     0.403682   
C19      C      0.942050000000     0.983320000000     0.931840000000     0.411604   
C20      C      0.023760000000     0.983460000000     0.102790000000     0.411911   
C21      C      0.980670000000     0.925800000000     0.518230000000     0.403964   
C22      C      0.981000000000     0.103100000000     0.516070000000     0.406509   
C23      C      0.021710000000     0.015690000000     0.431790000000     0.411775   
C24      C      0.940030000000     0.017360000000     0.602740000000     0.41152    
C25      C      0.484300000000     0.895000000000     0.013690000000     0.406606   
C26      C      0.484960000000     0.072270000000     0.015900000000     0.403874   
C27      C      0.443900000000     0.982740000000     0.929240000000     0.411759   
C28      C      0.525350000000     0.980540000000     0.100340000000     0.411689   
C29      C      0.482220000000     0.926950000000     0.515950000000     0.404167   
C30      C      0.482870000000     0.104220000000     0.513650000000     0.406801   
C31      C      0.523280000000     0.016450000000     0.429250000000     0.411769   
C32      C      0.441830000000     0.018700000000     0.600340000000     0.411627   
C33      C      0.370700000000     0.010640000000     0.827710000000    -0.0876508  
C34      C      0.395430000000     0.992230000000     0.789490000000     0.0354647  
C35      C      0.431140000000     0.963900000000     0.799890000000    -0.0883435  
C36      C      0.445760000000     0.959680000000     0.847500000000     0.0738852  
C37      C      0.384890000000     0.003430000000     0.875700000000     0.0714972  
C38      C      0.394600000000     0.011420000000     0.740560000000     0.0351889  
C39      C      0.369780000000     0.991970000000     0.703030000000    -0.0874323  
C40      C      0.383320000000     0.998610000000     0.654720000000     0.0714292  
C41      C      0.443600000000     0.044000000000     0.681270000000     0.0737939  
C42      C      0.429510000000     0.040410000000     0.729130000000    -0.0882794  
C43      C      0.597400000000     0.007270000000     0.203020000000    -0.0874875  
C44      C      0.572560000000     0.987840000000     0.240560000000     0.0352062  
C45      C      0.537650000000     0.958860000000     0.229130000000    -0.0882853  
C46      C      0.523570000000     0.955260000000     0.181270000000     0.0738593  
C47      C      0.583860000000     0.000620000000     0.154720000000     0.0714389  
C48      C      0.571760000000     0.007030000000     0.289500000000     0.0354236  
C49      C      0.596470000000     0.988580000000     0.327710000000    -0.0875802  
C50      C      0.582280000000     0.995760000000     0.375700000000     0.0714625  
C51      C      0.521430000000     0.039550000000     0.347510000000     0.073875   
C52      C      0.536050000000     0.035360000000     0.299910000000    -0.0883463  
C53      C      0.868710000000     0.009960000000     0.830050000000    -0.0875425  
C54      C      0.893460000000     0.991230000000     0.792030000000     0.0353233  
C55      C      0.929200000000     0.963030000000     0.802760000000    -0.0883331  
C56      C      0.943850000000     0.959320000000     0.850410000000     0.0737868  
C57      C      0.882920000000     0.003250000000     0.878120000000     0.0713839  
C58      C      0.892760000000     0.010140000000     0.742950000000     0.0352849  
C59      C      0.868020000000     0.990530000000     0.705450000000    -0.0874917  
C60      C      0.881570000000     0.997130000000     0.657130000000     0.0714442  
C61      C      0.941700000000     0.042730000000     0.683630000000     0.0738944  
C62      C      0.927610000000     0.039180000000     0.731490000000    -0.0883358  
C63      C      0.034990000000     0.036700000000     0.302890000000    -0.088373   
C64      C      0.070750000000     0.008550000000     0.292090000000     0.035411   
C65      C      0.095290000000     0.989460000000     0.330050000000    -0.0876246  
C66      C      0.080890000000     0.995830000000     0.378110000000     0.071522   
C67      C      0.020110000000     0.040010000000     0.350480000000     0.0739319  
C68      C      0.071480000000     0.989920000000     0.242890000000     0.0353267  
C69      C      0.036650000000     0.960890000000     0.231320000000    -0.0883096  
C70      C      0.022320000000     0.957730000000     0.183520000000     0.0740622  
C71      C      0.082250000000     0.003660000000     0.157150000000     0.0715409  
C72      C      0.095980000000     0.009920000000     0.205460000000    -0.0875415  
C73      C      0.488260000000     0.315150000000     0.556420000000    -0.0900758  
C74      C      0.482880000000     0.291750000000     0.512830000000     0.0366466  
C75      C      0.477270000000     0.315450000000     0.469440000000    -0.0898875  
C76      C      0.477610000000     0.361820000000     0.470240000000     0.0752354  
C77      C      0.487540000000     0.361500000000     0.556070000000     0.0751963  
C78      C      0.483040000000     0.242710000000     0.512670000000     0.0336737  
C79      C      0.518020000000     0.219230000000     0.534540000000    -0.086502   
C80      C      0.517710000000     0.172870000000     0.534030000000     0.0702761  
C81      C      0.448380000000     0.172720000000     0.491900000000     0.0701976  
C82      C      0.448110000000     0.219090000000     0.490910000000    -0.0865773  
C83      C      0.476720000000     0.714770000000     0.472840000000    -0.0884172  
C84      C      0.482370000000     0.738390000000     0.516380000000     0.0356331  
C85      C      0.488150000000     0.714380000000     0.559650000000    -0.0884926  
C86      C      0.487760000000     0.667890000000     0.558790000000     0.0735971  
C87      C      0.477130000000     0.668310000000     0.473170000000     0.0735093  
C88      C      0.482190000000     0.787810000000     0.516590000000     0.0330583  
C89      C      0.514660000000     0.811690000000     0.542400000000    -0.0855023  
C90      C      0.514330000000     0.858190000000     0.541610000000     0.0689649  
C91      C      0.449880000000     0.858030000000     0.491310000000     0.0690611  
C92      C      0.449620000000     0.811550000000     0.490770000000    -0.0855053  
C93      C      0.490510000000     0.284460000000     0.972790000000    -0.088063   
C94      C      0.484880000000     0.260830000000     0.016320000000     0.0353654  
C95      C      0.479140000000     0.284820000000     0.059600000000    -0.0883982  
C96      C      0.479550000000     0.331320000000     0.058770000000     0.0734986  
C97      C      0.490120000000     0.330930000000     0.973140000000     0.0735663  
C98      C      0.485030000000     0.211410000000     0.016510000000     0.0328596  
C99      C      0.517590000000     0.187660000000     0.990690000000    -0.0852693  
C100     C      0.517320000000     0.141180000000     0.991240000000     0.06919    
C101     C      0.452880000000     0.141050000000     0.041550000000     0.0689457  
C102     C      0.452570000000     0.187540000000     0.042340000000    -0.0854968  
C103     C      0.519050000000     0.780120000000     0.991010000000    -0.0863237  
C104     C      0.484120000000     0.756510000000     0.012800000000     0.0334555  
C105     C      0.449160000000     0.780000000000     0.034680000000    -0.0865088  
C106     C      0.449460000000     0.826360000000     0.034140000000     0.0702245  
C107     C      0.518770000000     0.826490000000     0.991980000000     0.0703722  
C108     C      0.484280000000     0.707470000000     0.012950000000     0.0364059  
C109     C      0.478950000000     0.684060000000     0.056560000000    -0.0899841  
C110     C      0.479680000000     0.637710000000     0.056200000000     0.0750646  
C111     C      0.489500000000     0.637410000000     0.970350000000     0.0754425  
C112     C      0.489830000000     0.683780000000     0.969560000000    -0.0896769  
C113     C      0.448300000000     0.474600000000     0.818460000000    -0.0831837  
C114     C      0.483290000000     0.495980000000     0.793180000000     0.0311247  
C115     C      0.519650000000     0.511770000000     0.820780000000    -0.0826806  
C116     C      0.519900000000     0.506910000000     0.871550000000     0.0667117  
C117     C      0.450250000000     0.469780000000     0.869270000000     0.06767    
C118     C      0.481990000000     0.501660000000     0.738700000000     0.0311673  
C119     C      0.460130000000     0.470420000000     0.708860000000    -0.0826041  
C120     C      0.459690000000     0.475870000000     0.658210000000     0.0664837  
C121     C      0.502210000000     0.541880000000     0.664590000000     0.0687878  
C122     C      0.502840000000     0.538100000000     0.715590000000    -0.0836079  
C123     C      0.519100000000     0.524300000000     0.318520000000    -0.0831323  
C124     C      0.483930000000     0.503260000000     0.293190000000     0.0310433  
C125     C      0.447370000000     0.487860000000     0.320760000000    -0.0826727  
C126     C      0.447120000000     0.492740000000     0.371530000000     0.0666535  
C127     C      0.517150000000     0.529130000000     0.369330000000     0.0674225  
C128     C      0.485240000000     0.497560000000     0.238690000000     0.0310788  
C129     C      0.507450000000     0.528570000000     0.208860000000    -0.0825735  
C130     C      0.507900000000     0.523100000000     0.158210000000     0.0663682  
C131     C      0.464740000000     0.457500000000     0.164550000000     0.0685553  
C132     C      0.464070000000     0.461310000000     0.215560000000    -0.0835697  
C133     C      0.977980000000     0.314240000000     0.470430000000    -0.089877   
C134     C      0.981160000000     0.290570000000     0.514120000000     0.0367147  
C135     C      0.984150000000     0.313960000000     0.557970000000    -0.0904626  
C136     C      0.983560000000     0.360290000000     0.557550000000     0.0755909  
C137     C      0.978490000000     0.360630000000     0.471220000000     0.0750901  
C138     C      0.981350000000     0.241560000000     0.514090000000     0.0335868  
C139     C      0.015930000000     0.218200000000     0.536830000000    -0.0866335  
C140     C      0.015580000000     0.171830000000     0.536630000000     0.0702831  
C141     C      0.946920000000     0.171510000000     0.493230000000     0.0701996  
C142     C      0.946760000000     0.217870000000     0.491820000000    -0.0865157  
C143     C      0.974540000000     0.713610000000     0.474950000000    -0.0883844  
C144     C      0.980960000000     0.737170000000     0.518400000000     0.0356064  
C145     C      0.987610000000     0.713080000000     0.561470000000    -0.0884177  
C146     C      0.987400000000     0.666580000000     0.560500000000     0.0733359  
C147     C      0.975100000000     0.667140000000     0.475160000000     0.073563   
C148     C      0.980730000000     0.786620000000     0.518710000000     0.0329832  
C149     C      0.947960000000     0.810380000000     0.493220000000    -0.0854614  
C150     C      0.948220000000     0.856860000000     0.493780000000     0.0689404  
C151     C      0.012990000000     0.857010000000     0.543570000000     0.0689715  
C152     C      0.013360000000     0.810510000000     0.544280000000    -0.0853814  
C153     C      0.781200000000     0.525630000000     0.560840000000    -0.0876247  
C154     C      0.757010000000     0.515170000000     0.518470000000     0.034963   
C155     C      0.781320000000     0.504390000000     0.476310000000    -0.0879206  
C156     C      0.828010000000     0.504830000000     0.476980000000     0.0740828  
C157     C      0.827910000000     0.524440000000     0.560590000000     0.0742351  
C158     C      0.706940000000     0.515320000000     0.518280000000     0.0350473  
C159     C      0.682590000000     0.505890000000     0.560790000000    -0.0877836  
C160     C      0.635910000000     0.506600000000     0.560150000000     0.0742592  
C161     C      0.636070000000     0.523820000000     0.475910000000     0.0743017  
C162     C      0.682790000000     0.524710000000     0.475590000000    -0.0878842  
C163     C      0.182400000000     0.526770000000     0.476660000000    -0.0880634  
C164     C      0.206870000000     0.515450000000     0.518540000000     0.0350638  
C165     C      0.182910000000     0.503840000000     0.560670000000    -0.0880141  
C166     C      0.136220000000     0.504290000000     0.560440000000     0.0744035  
C167     C      0.135720000000     0.525600000000     0.477320000000     0.0741041  
C168     C      0.256890000000     0.515650000000     0.518250000000     0.0350675  
C169     C      0.281300000000     0.524590000000     0.560860000000    -0.0878161  
C170     C      0.327990000000     0.523810000000     0.560110000000     0.0741778  
C171     C      0.327600000000     0.507560000000     0.475630000000     0.0746212  
C172     C      0.280920000000     0.506780000000     0.475370000000    -0.0882648  
C173     C      0.016090000000     0.189360000000     0.991440000000    -0.0851139  
C174     C      0.983510000000     0.213300000000     0.017030000000     0.0327343  
C175     C      0.950700000000     0.189580000000     0.042520000000    -0.0853896  
C176     C      0.950820000000     0.143090000000     0.041840000000     0.0688867  
C177     C      0.015590000000     0.142870000000     0.992040000000     0.0690741  
C178     C      0.983840000000     0.262740000000     0.017280000000     0.0353353  
C179     C      0.990580000000     0.286740000000     0.974160000000    -0.0881925  
C180     C      0.990550000000     0.333230000000     0.975040000000     0.0734988  
C181     C      0.978220000000     0.332880000000     0.060380000000     0.0734464  
C182     C      0.977470000000     0.286400000000     0.060680000000    -0.0882437  
C183     C      0.980480000000     0.685830000000     0.063840000000    -0.0897636  
C184     C      0.983610000000     0.709350000000     0.020040000000     0.0364437  
C185     C      0.986880000000     0.685800000000     0.976320000000    -0.0901556  
C186     C      0.986580000000     0.639460000000     0.976960000000     0.0756807  
C187     C      0.981260000000     0.639440000000     0.063280000000     0.0749953  
C188     C      0.983550000000     0.758350000000     0.019840000000     0.0333624  
C189     C      0.948840000000     0.781970000000     0.042010000000    -0.0865134  
C190     C      0.948850000000     0.828340000000     0.040510000000     0.070133   
C191     C      0.017540000000     0.828150000000     0.997150000000     0.0704522  
C192     C      0.018040000000     0.781790000000     0.997040000000    -0.0863681  
C193     C      0.686000000000     0.493050000000     0.974090000000    -0.0880391  
C194     C      0.710370000000     0.483940000000     0.016660000000     0.0348919  
C195     C      0.686290000000     0.474700000000     0.059440000000    -0.0877787  
C196     C      0.639580000000     0.475440000000     0.059130000000     0.0740371  
C197     C      0.639340000000     0.492180000000     0.974770000000     0.0749055  
C198     C      0.760390000000     0.484290000000     0.016470000000     0.0348132  
C199     C      0.784610000000     0.473570000000     0.974200000000    -0.0875173  
C200     C      0.831300000000     0.474930000000     0.974450000000     0.0745751  
C201     C      0.831310000000     0.495260000000     0.057860000000     0.0742296  
C202     C      0.784630000000     0.495550000000     0.058510000000    -0.0880692  
C203     C      0.185760000000     0.473720000000     0.058970000000    -0.0878276  
C204     C      0.210260000000     0.484560000000     0.016940000000     0.0347161  
C205     C      0.186270000000     0.495810000000     0.974710000000    -0.0875331  
C206     C      0.139560000000     0.495420000000     0.974960000000     0.0743254  
C207     C      0.139070000000     0.474940000000     0.058320000000     0.073839   
C208     C      0.260310000000     0.484240000000     0.017160000000     0.0347774  
C209     C      0.284450000000     0.493320000000     0.059930000000    -0.0877327  
C210     C      0.331140000000     0.492450000000     0.059590000000     0.074099   
C211     C      0.331370000000     0.475660000000     0.975250000000     0.0745801  
C212     C      0.284670000000     0.474960000000     0.974590000000    -0.0877241  
C213     C      0.001510000000     0.531730000000     0.823700000000    -0.0834731  
C214     C      0.983510000000     0.497740000000     0.794730000000     0.031115   
C215     C      0.967010000000     0.459470000000     0.818090000000    -0.0841866  
C216     C      0.968000000000     0.456460000000     0.869180000000     0.0677242  
C217     C      0.002780000000     0.526960000000     0.874460000000     0.0662061  
C218     C      0.982860000000     0.501900000000     0.740500000000     0.0311769  
C219     C      0.966080000000     0.540260000000     0.717530000000    -0.0842467  
C220     C      0.965940000000     0.543230000000     0.666420000000     0.0678271  
C221     C      0.000040000000     0.472450000000     0.660320000000     0.066078   
C222     C      0.999880000000     0.467730000000     0.711090000000    -0.0835271  
C223     C      0.947130000000     0.479340000000     0.215450000000    -0.0836963  
C224     C      0.983900000000     0.497480000000     0.240450000000     0.0308961  
C225     C      0.021460000000     0.510290000000     0.213060000000    -0.0829507  
C226     C      0.021260000000     0.505600000000     0.162260000000     0.0657905  
C227     C      0.948590000000     0.474550000000     0.164570000000     0.067001   
C228     C      0.983400000000     0.502890000000     0.294650000000     0.0309144  
C229     C      0.945910000000     0.520370000000     0.318980000000    -0.0837909  
C230     C      0.946440000000     0.525020000000     0.369930000000     0.0671382  
C231     C      0.019540000000     0.495080000000     0.373520000000     0.0654946  
C232     C      0.020660000000     0.490550000000     0.322730000000    -0.0828532  
Cu1      Cu     0.985020000000     0.486310000000     0.069660000000     1.21039    
Cu2      Cu     0.985510000000     0.486990000000     0.965580000000     1.20968    
Cu3      Cu     0.982200000000     0.512740000000     0.569600000000     1.20908    
Cu4      Cu     0.981880000000     0.513770000000     0.465500000000     1.21099    
Cu5      Cu     0.485250000000     0.485100000000     0.067930000000     1.21021    
Cu6      Cu     0.485600000000     0.484410000000     0.964000000000     1.21245    
Cu7      Cu     0.482050000000     0.514090000000     0.567990000000     1.21444    
Cu8      Cu     0.481600000000     0.514840000000     0.464070000000     1.20818    
Cu9      Cu     0.946050000000     0.985370000000     0.037520000000     0.852078   
Cu10     Cu     0.019780000000     0.985210000000     0.997160000000     0.852979   
Cu11     Cu     0.943960000000     0.014500000000     0.497080000000     0.852396   
Cu12     Cu     0.017700000000     0.014750000000     0.537430000000     0.852621   
Cu13     Cu     0.447740000000     0.983380000000     0.034930000000     0.852023   
Cu14     Cu     0.521530000000     0.983530000000     0.994700000000     0.853101   
Cu15     Cu     0.445650000000     0.015680000000     0.494700000000     0.852669   
Cu16     Cu     0.519430000000     0.015850000000     0.534940000000     0.852563   
H1       H      0.450810000000     0.949210000000     0.770840000000     0.0552975  
H2       H      0.475710000000     0.940200000000     0.854060000000     0.0239987  
H3       H      0.366940000000     0.020000000000     0.904860000000     0.0246325  
H4       H      0.343160000000     0.033070000000     0.820470000000     0.0524178  
H5       H      0.342860000000     0.969010000000     0.711070000000     0.0524369  
H6       H      0.365480000000     0.981120000000     0.626150000000     0.0245087  
H7       H      0.473160000000     0.063830000000     0.673890000000     0.0237854  
H8       H      0.449230000000     0.055900000000     0.757620000000     0.0551112  
H9       H      0.517920000000     0.943370000000     0.257630000000     0.05508    
H10      H      0.494000000000     0.935440000000     0.173900000000     0.0237569  
H11      H      0.601700000000     0.018100000000     0.126140000000     0.0244724  
H12      H      0.624330000000     0.030210000000     0.211060000000     0.0524363  
H13      H      0.624010000000     0.966130000000     0.320450000000     0.0523464  
H14      H      0.600220000000     0.979170000000     0.404850000000     0.0245819  
H15      H      0.491480000000     0.059030000000     0.354090000000     0.0239897  
H16      H      0.516390000000     0.050070000000     0.270860000000     0.0552797  
H17      H      0.948900000000     0.948110000000     0.773880000000     0.0552019  
H18      H      0.973850000000     0.939980000000     0.857200000000     0.0239397  
H19      H      0.864970000000     0.020100000000     0.907080000000     0.0246615  
H20      H      0.841150000000     0.032310000000     0.822560000000     0.0524054  
H21      H      0.841140000000     0.967540000000     0.713530000000     0.0523677  
H22      H      0.863790000000     0.979550000000     0.628580000000     0.0244026  
H23      H      0.971210000000     0.062630000000     0.676240000000     0.0237032  
H24      H      0.947260000000     0.054800000000     0.759960000000     0.0551272  
H25      H      0.122830000000     0.967110000000     0.322490000000     0.0524535  
H26      H      0.098710000000     0.978770000000     0.407020000000     0.0245365  
H27      H      0.990110000000     0.059350000000     0.357300000000     0.0239096  
H28      H      0.015430000000     0.051870000000     0.274050000000     0.0553151  
H29      H      0.017150000000     0.944990000000     0.259740000000     0.0552096  
H30      H      0.992840000000     0.937800000000     0.176080000000     0.0236681  
H31      H      0.099860000000     0.021480000000     0.128650000000     0.0242978  
H32      H      0.122800000000     0.032950000000     0.213620000000     0.0524106  
H33      H      0.473230000000     0.298240000000     0.435020000000     0.0523275  
H34      H      0.473400000000     0.379030000000     0.435810000000     0.0248212  
H35      H      0.491570000000     0.378440000000     0.590690000000     0.023626   
H36      H      0.492410000000     0.297720000000     0.590690000000     0.0523077  
H37      H      0.545700000000     0.236610000000     0.551490000000     0.0519835  
H38      H      0.545520000000     0.155880000000     0.551230000000     0.0263068  
H39      H      0.420540000000     0.155600000000     0.474920000000     0.0261667  
H40      H      0.420410000000     0.236350000000     0.473880000000     0.0516031  
H41      H      0.492290000000     0.731410000000     0.594140000000     0.0515879  
H42      H      0.492080000000     0.650670000000     0.593190000000     0.023961   
H43      H      0.472820000000     0.651440000000     0.438560000000     0.0256325  
H44      H      0.472570000000     0.732100000000     0.438530000000     0.0517792  
H45      H      0.540630000000     0.794570000000     0.562530000000     0.050984   
H46      H      0.540270000000     0.875300000000     0.561860000000     0.0263771  
H47      H      0.423920000000     0.874990000000     0.470940000000     0.0264997  
H48      H      0.423680000000     0.794320000000     0.470700000000     0.051291   
H49      H      0.475020000000     0.267790000000     0.094100000000     0.0515301  
H50      H      0.475260000000     0.348520000000     0.093180000000     0.0239791  
H51      H      0.494410000000     0.347810000000     0.938540000000     0.0256356  
H52      H      0.494640000000     0.267140000000     0.938460000000     0.0517288  
H53      H      0.543520000000     0.204880000000     0.970600000000     0.0512783  
H54      H      0.543270000000     0.124210000000     0.970850000000     0.0265048  
H55      H      0.426930000000     0.123950000000     0.061810000000     0.0263676  
H56      H      0.426600000000     0.204670000000     0.062470000000     0.0509654  
H57      H      0.421490000000     0.762630000000     0.051650000000     0.0519272  
H58      H      0.421660000000     0.843360000000     0.051340000000     0.0262733  
H59      H      0.546610000000     0.843600000000     0.974970000000     0.0261945  
H60      H      0.546740000000     0.762850000000     0.973970000000     0.0516402  
H61      H      0.474850000000     0.701490000000     0.090840000000     0.0522534  
H62      H      0.475710000000     0.620770000000     0.090820000000     0.0236505  
H63      H      0.493660000000     0.620210000000     0.935910000000     0.0248067  
H64      H      0.493820000000     0.700990000000     0.935140000000     0.0523503  
H65      H      0.547970000000     0.527710000000     0.803540000000     0.0481073  
H66      H      0.547490000000     0.520400000000     0.892240000000     0.0154546  
H67      H      0.423000000000     0.453630000000     0.888170000000     0.0131038  
H68      H      0.419030000000     0.462410000000     0.799510000000     0.0483179  
H69      H      0.444130000000     0.441340000000     0.724160000000     0.0483417  
H70      H      0.442700000000     0.451540000000     0.635900000000     0.0157614  
H71      H      0.518960000000     0.569540000000     0.647210000000     0.0125545  
H72      H      0.519380000000     0.563770000000     0.736530000000     0.0484407  
H73      H      0.418910000000     0.472200000000     0.303470000000     0.0480062  
H74      H      0.419360000000     0.479530000000     0.392190000000     0.0153679  
H75      H      0.544550000000     0.544990000000     0.388260000000     0.0131467  
H76      H      0.548510000000     0.536190000000     0.299610000000     0.0482387  
H77      H      0.523720000000     0.557500000000     0.224180000000     0.0482809  
H78      H      0.525140000000     0.547270000000     0.135900000000     0.0157518  
H79      H      0.447750000000     0.430000000000     0.147160000000     0.0125905  
H80      H      0.447240000000     0.435820000000     0.236480000000     0.0483858  
H81      H      0.986380000000     0.296510000000     0.592440000000     0.0522686  
H82      H      0.985680000000     0.377190000000     0.592380000000     0.0223784  
H83      H      0.976300000000     0.377860000000     0.436580000000     0.025271   
H84      H      0.975770000000     0.296990000000     0.435840000000     0.0526069  
H85      H      0.043300000000     0.235670000000     0.554240000000     0.051726   
H86      H      0.043090000000     0.154910000000     0.554500000000     0.0261211  
H87      H      0.919330000000     0.154310000000     0.475850000000     0.0262632  
H88      H      0.919390000000     0.235090000000     0.474100000000     0.0520447  
H89      H      0.992320000000     0.730040000000     0.595920000000     0.0513744  
H90      H      0.992430000000     0.649310000000     0.594760000000     0.0239318  
H91      H      0.970190000000     0.650330000000     0.440610000000     0.0255309  
H92      H      0.969690000000     0.730970000000     0.440770000000     0.0517716  
H93      H      0.921870000000     0.793170000000     0.473350000000     0.0509894  
H94      H      0.922100000000     0.873830000000     0.473640000000     0.0264713  
H95      H      0.039070000000     0.874120000000     0.563620000000     0.026448   
H96      H      0.039510000000     0.793400000000     0.564140000000     0.0511404  
H97      H      0.764670000000     0.494950000000     0.442870000000     0.0502322  
H98      H      0.845240000000     0.496290000000     0.443480000000     0.0234399  
H99      H      0.845090000000     0.532710000000     0.594200000000     0.0247731  
H100     H      0.764450000000     0.535310000000     0.594140000000     0.0504703  
H101     H      0.699200000000     0.497280000000     0.594530000000     0.0506431  
H102     H      0.618660000000     0.499110000000     0.593930000000     0.0253543  
H103     H      0.618920000000     0.531220000000     0.442040000000     0.0225537  
H104     H      0.699580000000     0.533320000000     0.441960000000     0.0500456  
H105     H      0.199840000000     0.493740000000     0.593710000000     0.05048    
H106     H      0.119210000000     0.495060000000     0.593860000000     0.0246567  
H107     H      0.118310000000     0.534520000000     0.444050000000     0.0233275  
H108     H      0.198910000000     0.537090000000     0.443450000000     0.0503659  
H109     H      0.264720000000     0.532770000000     0.594750000000     0.0507059  
H110     H      0.345350000000     0.530820000000     0.593950000000     0.0251004  
H111     H      0.344630000000     0.500500000000     0.441610000000     0.0226475  
H112     H      0.264050000000     0.498570000000     0.441670000000     0.0500849  
H113     H      0.924660000000     0.206830000000     0.062420000000     0.0510274  
H114     H      0.924660000000     0.126140000000     0.061930000000     0.0264526  
H115     H      0.041620000000     0.125740000000     0.971940000000     0.0264688  
H116     H      0.042290000000     0.206430000000     0.971610000000     0.0510421  
H117     H      0.995250000000     0.269710000000     0.939750000000     0.0513606  
H118     H      0.995650000000     0.350420000000     0.940750000000     0.0239624  
H119     H      0.973340000000     0.349760000000     0.094890000000     0.0254752  
H120     H      0.972560000000     0.269100000000     0.094900000000     0.0517009  
H121     H      0.989110000000     0.703110000000     0.941770000000     0.0522307  
H122     H      0.988900000000     0.622440000000     0.942220000000     0.0224174  
H123     H      0.979080000000     0.622340000000     0.097990000000     0.0252874  
H124     H      0.978070000000     0.703210000000     0.098340000000     0.0525606  
H125     H      0.921530000000     0.764690000000     0.059750000000     0.051918   
H126     H      0.921210000000     0.845480000000     0.057870000000     0.026179   
H127     H      0.045010000000     0.845130000000     0.979290000000     0.0262339  
H128     H      0.045480000000     0.764380000000     0.979700000000     0.051838   
H129     H      0.703130000000     0.466330000000     0.093110000000     0.0503821  
H130     H      0.622450000000     0.468200000000     0.093060000000     0.0248928  
H131     H      0.622060000000     0.499430000000     0.940940000000     0.0227887  
H132     H      0.702570000000     0.501530000000     0.940290000000     0.0503931  
H133     H      0.767900000000     0.463540000000     0.941000000000     0.0506099  
H134     H      0.848530000000     0.466430000000     0.940930000000     0.0247407  
H135     H      0.848490000000     0.504150000000     0.091280000000     0.0233875  
H136     H      0.767930000000     0.505230000000     0.091840000000     0.0501337  
H137     H      0.203180000000     0.505560000000     0.941530000000     0.050518   
H138     H      0.122560000000     0.504340000000     0.941440000000     0.024708   
H139     H      0.121660000000     0.466370000000     0.091700000000     0.0233841  
H140     H      0.202270000000     0.463720000000     0.092300000000     0.0501643  
H141     H      0.267650000000     0.501770000000     0.093610000000     0.0502835  
H142     H      0.348250000000     0.499690000000     0.093530000000     0.0251624  
H143     H      0.348660000000     0.468390000000     0.941440000000     0.0227273  
H144     H      0.268040000000     0.466600000000     0.940800000000     0.0503688  
H145     H      0.952780000000     0.432460000000     0.797090000000     0.0497163  
H146     H      0.954370000000     0.427370000000     0.886980000000     0.0126928  
H147     H      0.017460000000     0.553100000000     0.896210000000     0.0155425  
H148     H      0.015190000000     0.561480000000     0.807180000000     0.049336   
H149     H      0.952590000000     0.567410000000     0.738900000000     0.0496945  
H150     H      0.952280000000     0.572470000000     0.648950000000     0.0123929  
H151     H      0.014170000000     0.446240000000     0.638260000000     0.0157658  
H152     H      0.013740000000     0.437900000000     0.727260000000     0.0493174  
H153     H      0.050400000000     0.524850000000     0.230640000000     0.0491166  
H154     H      0.049810000000     0.516960000000     0.141550000000     0.0153599  
H155     H      0.920080000000     0.460660000000     0.145700000000     0.0140948  
H156     H      0.917620000000     0.468590000000     0.235090000000     0.0490343  
H157     H      0.916560000000     0.530680000000     0.298800000000     0.0490258  
H158     H      0.917420000000     0.538400000000     0.388300000000     0.0136526  
H159     H      0.047920000000     0.484050000000     0.394690000000     0.0157358  
H160     H      0.050100000000     0.476460000000     0.305700000000     0.0490664  
N1       N      0.424150000000     0.981220000000     0.884600000000    -0.196018   
N2       N      0.422130000000     0.021250000000     0.644940000000    -0.19601    
N3       N      0.545040000000     0.977990000000     0.144940000000    -0.196076   
N4       N      0.543030000000     0.017980000000     0.384600000000    -0.195983   
N5       N      0.922240000000     0.981220000000     0.887260000000    -0.195977   
N6       N      0.920310000000     0.019880000000     0.647330000000    -0.196022   
N7       N      0.041570000000     0.017840000000     0.387240000000    -0.196034   
N8       N      0.043530000000     0.980880000000     0.147330000000    -0.196166   
N9       N      0.482490000000     0.384670000000     0.513270000000    -0.209122   
N10      N      0.483000000000     0.149780000000     0.513160000000    -0.193295   
N11      N      0.482390000000     0.644960000000     0.515850000000    -0.20509    
N12      N      0.482130000000     0.881250000000     0.516330000000    -0.191921   
N13      N      0.484890000000     0.354260000000     0.015840000000    -0.205117   
N14      N      0.485060000000     0.117970000000     0.016270000000    -0.191998   
N15      N      0.484160000000     0.849440000000     0.013240000000    -0.193396   
N16      N      0.484680000000     0.614550000000     0.013380000000    -0.209215   
N17      N      0.485550000000     0.486160000000     0.894980000000    -0.257559   
N18      N      0.480970000000     0.510870000000     0.636850000000    -0.258308   
N19      N      0.481650000000     0.513120000000     0.395010000000    -0.256942   
N20      N      0.486320000000     0.488300000000     0.136820000000    -0.257798   
N21      N      0.981070000000     0.383480000000     0.514490000000    -0.209021   
N22      N      0.981170000000     0.148650000000     0.515310000000    -0.193305   
N23      N      0.981350000000     0.643710000000     0.517630000000    -0.205001   
N24      N      0.980620000000     0.880090000000     0.518570000000    -0.191839   
N25      N      0.851160000000     0.514430000000     0.518890000000    -0.206692   
N26      N      0.612790000000     0.515150000000     0.517950000000    -0.206851   
N27      N      0.112790000000     0.514740000000     0.518980000000    -0.207661   
N28      N      0.350980000000     0.515640000000     0.517750000000    -0.20768    
N29      N      0.983130000000     0.119830000000     0.016960000000    -0.191918   
N30      N      0.984570000000     0.356200000000     0.017860000000    -0.205136   
N31      N      0.984090000000     0.616430000000     0.020130000000    -0.209022   
N32      N      0.983060000000     0.851260000000     0.018460000000    -0.193413   
N33      N      0.616270000000     0.483810000000     0.017040000000    -0.207816   
N34      N      0.854490000000     0.485370000000     0.016060000000    -0.207261   
N35      N      0.116120000000     0.485380000000     0.016540000000    -0.207252   
N36      N      0.354460000000     0.484080000000     0.017490000000    -0.20696    
N37      N      0.985700000000     0.489990000000     0.896470000000    -0.25672    
N38      N      0.982780000000     0.509540000000     0.638710000000    -0.256566   
N39      N      0.985210000000     0.487910000000     0.138810000000    -0.256701   
N40      N      0.982850000000     0.512190000000     0.396350000000    -0.25668    
O1       O      0.981650000000     0.422850000000     0.058490000000    -0.478485   
O2       O      0.986530000000     0.549640000000     0.060000000000    -0.487008   
O3       O      0.921490000000     0.488930000000     0.056180000000    -0.483371   
O4       O      0.048760000000     0.482740000000     0.056310000000    -0.484331   
O5       O      0.049190000000     0.489310000000     0.976180000000    -0.483639   
O6       O      0.921680000000     0.483090000000     0.975920000000    -0.481663   
O7       O      0.982800000000     0.549890000000     0.979860000000    -0.488659   
O8       O      0.988320000000     0.423310000000     0.978100000000    -0.47739    
O9       O      0.979470000000     0.449880000000     0.555040000000    -0.488842   
O10      O      0.984960000000     0.576480000000     0.557190000000    -0.477263   
O11      O      0.918330000000     0.516530000000     0.559160000000    -0.480716   
O12      O      0.045850000000     0.510380000000     0.559200000000    -0.484792   
O13      O      0.045500000000     0.517620000000     0.479200000000    -0.485546   
O14      O      0.918250000000     0.511220000000     0.478790000000    -0.482212   
O15      O      0.978360000000     0.577180000000     0.476780000000    -0.478308   
O16      O      0.983420000000     0.450420000000     0.474940000000    -0.4877     
O17      O      0.483000000000     0.421380000000     0.055730000000    -0.477842   
O18      O      0.484580000000     0.548110000000     0.053900000000    -0.488903   
O19      O      0.421470000000     0.485850000000     0.057890000000    -0.481517   
O20      O      0.549120000000     0.482770000000     0.057290000000    -0.484926   
O21      O      0.549200000000     0.485310000000     0.976930000000    -0.485039   
O22      O      0.421740000000     0.482850000000     0.977430000000    -0.482928   
O23      O      0.485450000000     0.547690000000     0.973700000000    -0.488163   
O24      O      0.487320000000     0.420900000000     0.975150000000    -0.479233   
O25      O      0.482690000000     0.451100000000     0.553810000000    -0.489456   
O26      O      0.484320000000     0.577820000000     0.555720000000    -0.478077   
O27      O      0.418270000000     0.516460000000     0.557590000000    -0.486651   
O28      O      0.545730000000     0.513310000000     0.558120000000    -0.483048   
O29      O      0.545560000000     0.516400000000     0.477660000000    -0.481608   
O30      O      0.417920000000     0.514040000000     0.477230000000    -0.483702   
O31      O      0.479920000000     0.578350000000     0.475140000000    -0.478944   
O32      O      0.481690000000     0.451550000000     0.473620000000    -0.48815    
O33      O      0.948450000000     0.918120000000     0.033280000000    -0.399101   
O34      O      0.951140000000     0.052860000000     0.038140000000    -0.397015   
O35      O      0.918240000000     0.988370000000     0.970280000000    -0.39996    
O36      O      0.980950000000     0.981180000000     0.100160000000    -0.404517   
O37      O      0.047610000000     0.988480000000     0.064390000000    -0.40023    
O38      O      0.984850000000     0.980860000000     0.934500000000    -0.404282   
O39      O      0.014870000000     0.052680000000     0.996080000000    -0.397008   
O40      O      0.017250000000     0.918000000000     0.001990000000    -0.399357   
O41      O      0.948840000000     0.947030000000     0.497000000000    -0.39734    
O42      O      0.946530000000     0.081760000000     0.500770000000    -0.399056   
O43      O      0.978900000000     0.018110000000     0.434380000000    -0.404282   
O44      O      0.916160000000     0.012030000000     0.564380000000    -0.399841   
O45      O      0.982830000000     0.019680000000     0.600030000000    -0.404507   
O46      O      0.045510000000     0.010960000000     0.470270000000    -0.400374   
O47      O      0.015340000000     0.081940000000     0.532060000000    -0.398896   
O48      O      0.012580000000     0.947260000000     0.539050000000    -0.396894   
O49      O      0.449930000000     0.916210000000     0.029470000000    -0.399144   
O50      O      0.453020000000     0.050840000000     0.036700000000    -0.397021   
O51      O      0.420050000000     0.987400000000     0.967710000000    -0.40002    
O52      O      0.482550000000     0.978270000000     0.097590000000    -0.404291   
O53      O      0.549250000000     0.985910000000     0.062020000000    -0.400267   
O54      O      0.486680000000     0.980080000000     0.931930000000    -0.404391   
O55      O      0.516750000000     0.051010000000     0.994640000000    -0.397156   
O56      O      0.518820000000     0.916280000000     0.998430000000    -0.399097   
O57      O      0.450430000000     0.948200000000     0.494670000000    -0.39733    
O58      O      0.448340000000     0.082930000000     0.498410000000    -0.399224   
O59      O      0.480490000000     0.019110000000     0.431930000000    -0.404339   
O60      O      0.417930000000     0.013320000000     0.562020000000    -0.400073   
O61      O      0.484630000000     0.020980000000     0.597590000000    -0.404374   
O62      O      0.547120000000     0.011810000000     0.467710000000    -0.400269   
O63      O      0.517240000000     0.083010000000     0.529430000000    -0.39921    
O64      O      0.514160000000     0.948390000000     0.536730000000    -0.397115   


