data_structure

_audit_creation_method RASPA-1.0
_audit_creation_date 2023-5-23
_audit_author_name 'Poobodin Mano'

_cell_length_a    45.489
_cell_length_b    45.4922
_cell_length_c    45.4859
_cell_angle_alpha 90
_cell_angle_beta  90
_cell_angle_gamma 90
_cell_volume      94128.3

_symmetry_cell_setting          triclinic
_symmetry_space_group_name_Hall 'P 1'
_symmetry_space_group_name_H-M  'P 1'
_symmetry_Int_Tables_number     1

_symmetry_equiv_pos_as_xyz 'x,y,z'

loop_
_atom_site_label
_atom_site_type_symbol
_atom_site_fract_x
_atom_site_fract_y
_atom_site_fract_z
_atom_site_charge
C1       C      0.601190000000     0.327800000000     0.993890000000     0.404445   
C2       C      0.718450000000     0.328080000000     0.990900000000     0.404417   
C3       C      0.659970000000     0.269270000000     0.991490000000     0.404665   
C4       C      0.659840000000     0.386520000000     0.993480000000     0.404776   
C5       C      0.384180000000     0.327660000000     0.996960000000     0.404416   
C6       C      0.266910000000     0.329320000000     0.998220000000     0.404359   
C7       C      0.324700000000     0.269830000000     0.997810000000     0.40451    
C8       C      0.326430000000     0.387080000000     0.997410000000     0.40462    
C9       C      0.723210000000     0.661890000000     0.995720000000     0.404433   
C10      C      0.605980000000     0.662160000000     0.995480000000     0.404564   
C11      C      0.664360000000     0.603420000000     0.995710000000     0.404751   
C12      C      0.664690000000     0.720640000000     0.995180000000     0.404426   
C13      C      0.271870000000     0.663420000000     0.999010000000     0.404456   
C14      C      0.389090000000     0.661870000000     0.997410000000     0.404669   
C15      C      0.329610000000     0.604040000000     0.997770000000     0.404804   
C16      C      0.331380000000     0.721250000000     0.998750000000     0.404384   
C17      C      0.607700000000     0.993950000000     0.659500000000     0.404448   
C18      C      0.724910000000     0.994230000000     0.657650000000     0.403934   
C19      C      0.667260000000     0.994230000000     0.717090000000     0.404011   
C20      C      0.665370000000     0.994000000000     0.599850000000     0.404153   
C21      C      0.390790000000     0.993340000000     0.665540000000     0.404331   
C22      C      0.273520000000     0.993010000000     0.667660000000     0.403925   
C23      C      0.333270000000     0.992380000000     0.725330000000     0.403866   
C24      C      0.331120000000     0.993920000000     0.608070000000     0.404442   
C25      C      0.267240000000     0.998280000000     0.333800000000     0.403984   
C26      C      0.384480000000     0.995600000000     0.331180000000     0.404287   
C27      C      0.327200000000     0.996060000000     0.391110000000     0.404525   
C28      C      0.324450000000     0.997890000000     0.273860000000     0.403877   
C29      C      0.718660000000     0.995710000000     0.323220000000     0.403495   
C30      C      0.601410000000     0.994300000000     0.325320000000     0.404048   
C31      C      0.661100000000     0.994610000000     0.382900000000     0.403933   
C32      C      0.658910000000     0.995330000000     0.265670000000     0.404095   
C33      C      0.999250000000     0.660140000000     0.725520000000     0.403825   
C34      C      0.997900000000     0.661980000000     0.608310000000     0.403881   
C35      C      0.998610000000     0.602410000000     0.665900000000     0.403636   
C36      C      0.998780000000     0.719640000000     0.667860000000     0.403256   
C37      C      0.998280000000     0.268230000000     0.658200000000     0.403585   
C38      C      0.998810000000     0.385490000000     0.660530000000     0.403577   
C39      C      0.998500000000     0.328020000000     0.600690000000     0.403577   
C40      C      0.998500000000     0.325850000000     0.717980000000     0.403295   
C41      C      0.995150000000     0.665480000000     0.391410000000     0.403999   
C42      C      0.994730000000     0.666680000000     0.274170000000     0.403595   
C43      C      0.995170000000     0.724770000000     0.333500000000     0.403373   
C44      C      0.994400000000     0.607520000000     0.332050000000     0.403513   
C45      C      0.995240000000     0.330780000000     0.383690000000     0.403613   
C46      C      0.991450000000     0.333090000000     0.266460000000     0.403445   
C47      C      0.993510000000     0.273350000000     0.323910000000     0.403467   
C48      C      0.993210000000     0.390620000000     0.326300000000     0.403661   
C49      C      0.934070000000     0.329700000000     0.989810000000     0.405288   
C50      C      0.051240000000     0.330120000000     0.994850000000     0.405355   
C51      C      0.995150000000     0.328650000000     0.933650000000     0.405245   
C52      C      0.990190000000     0.331200000000     0.050830000000     0.405243   
C53      C      0.938930000000     0.662630000000     0.998640000000     0.404224   
C54      C      0.056170000000     0.663150000000     0.000810000000     0.407062   
C55      C      0.998660000000     0.661890000000     0.941210000000     0.405661   
C56      C      0.996380000000     0.663910000000     0.058430000000     0.405548   
C57      C      0.051650000000     0.999810000000     0.330460000000     0.402656   
C58      C      0.934410000000     0.998410000000     0.326380000000     0.405586   
C59      C      0.992620000000     0.057700000000     0.326470000000     0.40553    
C60      C      0.993730000000     0.940480000000     0.330380000000     0.405361   
C61      C      0.940590000000     0.993920000000     0.661320000000     0.405363   
C62      C      0.057840000000     0.993960000000     0.664340000000     0.405114   
C63      C      0.999210000000     0.935360000000     0.664780000000     0.40343    
C64      C      0.999060000000     0.052590000000     0.660900000000     0.40501    
C65      C      0.662130000000     0.053610000000     0.990630000000     0.405698   
C66      C      0.663240000000     0.936350000000     0.992210000000     0.405454   
C67      C      0.660890000000     0.995650000000     0.049990000000     0.405665   
C68      C      0.664500000000     0.994350000000     0.932770000000     0.405346   
C69      C      0.326900000000     0.054160000000     0.998460000000     0.405694   
C70      C      0.329700000000     0.936930000000     0.000620000000     0.407458   
C71      C      0.326310000000     0.996850000000     0.058190000000     0.405322   
C72      C      0.330350000000     0.994210000000     0.940970000000     0.405525   
C73      C      0.988070000000     0.134500000000     0.350350000000    -0.0875323  
C74      C      0.993340000000     0.149330000000     0.324010000000     0.0355095  
C75      C      0.998280000000     0.133090000000     0.298420000000    -0.0888099  
C76      C      0.997540000000     0.102390000000     0.299510000000     0.0685672  
C77      C      0.988170000000     0.103820000000     0.350820000000     0.0703774  
C78      C      0.993390000000     0.181700000000     0.323300000000     0.0315917  
C79      C      0.967380000000     0.197270000000     0.328030000000    -0.0860098  
C80      C      0.967750000000     0.227950000000     0.327700000000     0.0694597  
C81      C      0.019190000000     0.227920000000     0.318980000000     0.0709716  
C82      C      0.019450000000     0.197200000000     0.318490000000    -0.0840963  
C83      C      0.963190000000     0.329550000000     0.191020000000    -0.0859132  
C84      C      0.988980000000     0.333420000000     0.174830000000     0.0320384  
C85      C      0.015510000000     0.337430000000     0.189690000000    -0.0844992  
C86      C      0.015960000000     0.337070000000     0.220380000000     0.071217   
C87      C      0.964300000000     0.329960000000     0.221730000000     0.0693804  
C88      C      0.988370000000     0.333010000000     0.142460000000     0.0347814  
C89      C      0.983480000000     0.306750000000     0.127350000000    -0.0870773  
C90      C      0.984270000000     0.306490000000     0.096650000000     0.0700262  
C91      C      0.993430000000     0.357840000000     0.095810000000     0.069995   
C92      C      0.993430000000     0.358730000000     0.126510000000    -0.0871646  
C93      C      0.019300000000     0.531070000000     0.337170000000    -0.0832803  
C94      C      0.993630000000     0.515510000000     0.329950000000     0.0325558  
C95      C      0.968190000000     0.531800000000     0.323630000000    -0.0848905  
C96      C      0.968730000000     0.562470000000     0.324920000000     0.0696412  
C97      C      0.019270000000     0.561770000000     0.337400000000     0.0713372  
C98      C      0.993430000000     0.482630000000     0.328910000000     0.0325063  
C99      C      0.018950000000     0.466810000000     0.321770000000    -0.083364   
C100     C      0.018540000000     0.436130000000     0.321370000000     0.0713973  
C101     C      0.967920000000     0.435910000000     0.333520000000     0.0697065  
C102     C      0.967750000000     0.466590000000     0.334980000000    -0.084703   
C103     C      0.021110000000     0.800870000000     0.327910000000    -0.0850502  
C104     C      0.995310000000     0.816450000000     0.333790000000     0.0332541  
C105     C      0.969540000000     0.800910000000     0.339840000000    -0.0866084  
C106     C      0.969820000000     0.770210000000     0.339410000000     0.0696722  
C107     C      0.020810000000     0.770170000000     0.328390000000     0.0711836  
C108     C      0.995130000000     0.848840000000     0.333060000000     0.0308514  
C109     C      0.989410000000     0.865040000000     0.358520000000    -0.08525    
C110     C      0.989420000000     0.895740000000     0.357350000000     0.0689286  
C111     C      0.999540000000     0.894410000000     0.306190000000     0.0643098  
C112     C      0.000430000000     0.863740000000     0.306750000000    -0.0806162  
C113     C      0.969010000000     0.672290000000     0.197960000000    -0.086358   
C114     C      0.994790000000     0.666040000000     0.182490000000     0.0326372  
C115     C      0.020550000000     0.660220000000     0.198130000000    -0.0848206  
C116     C      0.020230000000     0.660980000000     0.228810000000     0.071265   
C117     C      0.969280000000     0.672140000000     0.228680000000     0.0695851  
C118     C      0.994860000000     0.665450000000     0.150080000000     0.0326597  
C119     C      0.989200000000     0.690990000000     0.134010000000    -0.0863743  
C120     C      0.990110000000     0.690170000000     0.103320000000     0.0695791  
C121     C      0.000910000000     0.639150000000     0.104350000000     0.0715152  
C122     C      0.000910000000     0.639380000000     0.135050000000    -0.084803   
C123     C      0.022790000000     0.335750000000     0.459310000000    -0.0830738  
C124     C      0.997400000000     0.329450000000     0.475720000000     0.0325867  
C125     C      0.971420000000     0.323280000000     0.460240000000    -0.0850623  
C126     C      0.971060000000     0.324190000000     0.429580000000     0.0699417  
C127     C      0.021850000000     0.335550000000     0.428590000000     0.071244   
C128     C      0.997870000000     0.329360000000     0.508640000000     0.0325379  
C129     C      0.023580000000     0.322440000000     0.524280000000    -0.0831253  
C130     C      0.023550000000     0.322610000000     0.555000000000     0.071189   
C131     C      0.973030000000     0.335160000000     0.555560000000     0.0698494  
C132     C      0.972510000000     0.336110000000     0.524890000000    -0.0849114  
C133     C      0.971870000000     0.328610000000     0.794000000000    -0.0864694  
C134     C      0.998120000000     0.326070000000     0.809670000000     0.0325071  
C135     C      0.024520000000     0.323160000000     0.794290000000    -0.0847243  
C136     C      0.024310000000     0.323270000000     0.763560000000     0.0709599  
C137     C      0.972360000000     0.328080000000     0.763310000000     0.0694831  
C138     C      0.997900000000     0.326760000000     0.842030000000     0.03249    
C139     C      0.992990000000     0.353150000000     0.856900000000    -0.0865725  
C140     C      0.992540000000     0.353460000000     0.887590000000     0.0695189  
C141     C      0.000990000000     0.302000000000     0.888890000000     0.0711202  
C142     C      0.002130000000     0.301030000000     0.858210000000    -0.0847368  
C143     C      0.001870000000     0.129420000000     0.684970000000    -0.0849027  
C144     C      0.998140000000     0.144210000000     0.658360000000     0.0326119  
C145     C      0.994730000000     0.127960000000     0.632540000000    -0.0863133  
C146     C      0.995420000000     0.097260000000     0.633690000000     0.0695294  
C147     C      0.001850000000     0.098740000000     0.685450000000     0.0714136  
C148     C      0.998170000000     0.176570000000     0.657610000000     0.0325502  
C149     C      0.972080000000     0.192120000000     0.653190000000    -0.0862547  
C150     C      0.972430000000     0.222840000000     0.653630000000     0.0693879  
C151     C      0.023980000000     0.222750000000     0.661660000000     0.0711879  
C152     C      0.024280000000     0.192070000000     0.661950000000    -0.0848883  
C153     C      0.970320000000     0.657740000000     0.467690000000    -0.0848384  
C154     C      0.996120000000     0.664080000000     0.483420000000     0.0325639  
C155     C      0.021500000000     0.671040000000     0.467310000000    -0.0834163  
C156     C      0.020850000000     0.671020000000     0.436630000000     0.071474   
C157     C      0.970250000000     0.658770000000     0.436990000000     0.0696418  
C158     C      0.996580000000     0.663470000000     0.516300000000     0.0325619  
C159     C      0.971280000000     0.670060000000     0.532700000000    -0.0849721  
C160     C      0.972020000000     0.669040000000     0.563370000000     0.0697553  
C161     C      0.022510000000     0.656390000000     0.562450000000     0.0713284  
C162     C      0.022340000000     0.656350000000     0.531740000000    -0.0832761  
C163     C      0.024530000000     0.461730000000     0.655980000000    -0.083172   
C164     C      0.998870000000     0.477500000000     0.662830000000     0.032541   
C165     C      0.973260000000     0.461400000000     0.668920000000    -0.0849634  
C166     C      0.973550000000     0.430750000000     0.667620000000     0.0697739  
C167     C      0.024240000000     0.431010000000     0.655750000000     0.0713425  
C168     C      0.998810000000     0.510400000000     0.663630000000     0.0325515  
C169     C      0.024320000000     0.526210000000     0.670800000000    -0.0832677  
C170     C      0.023960000000     0.556910000000     0.671060000000     0.0712709  
C171     C      0.973400000000     0.557120000000     0.658640000000     0.0697319  
C172     C      0.973200000000     0.526450000000     0.657290000000    -0.084874   
C173     C      0.004880000000     0.858560000000     0.641160000000    -0.0847948  
C174     C      0.999080000000     0.843720000000     0.667400000000     0.0325803  
C175     C      0.993340000000     0.859980000000     0.692810000000    -0.0863226  
C176     C      0.993850000000     0.890680000000     0.691670000000     0.0694011  
C177     C      0.004490000000     0.889230000000     0.640620000000     0.0712477  
C178     C      0.999090000000     0.811320000000     0.668160000000     0.032579   
C179     C      0.973320000000     0.795850000000     0.674420000000    -0.0862707  
C180     C      0.973520000000     0.765140000000     0.673990000000     0.0694837  
C181     C      0.024420000000     0.764990000000     0.662580000000     0.0711762  
C182     C      0.024800000000     0.795670000000     0.662100000000    -0.0848065  
C183     C      0.973940000000     0.654090000000     0.801780000000    -0.0863766  
C184     C      0.999810000000     0.660020000000     0.817180000000     0.0326005  
C185     C      0.025570000000     0.665770000000     0.801490000000    -0.0847891  
C186     C      0.025120000000     0.665250000000     0.770790000000     0.0711538  
C187     C      0.974080000000     0.654460000000     0.771080000000     0.0696404  
C188     C      0.999850000000     0.660420000000     0.849570000000     0.0326748  
C189     C      0.005350000000     0.686510000000     0.864770000000    -0.0848835  
C190     C      0.004570000000     0.686690000000     0.895460000000     0.071389   
C191     C      0.994220000000     0.635570000000     0.896150000000     0.069628   
C192     C      0.994100000000     0.634790000000     0.865460000000    -0.0865876  
C193     C      0.794440000000     0.022540000000     0.328720000000    -0.0852207  
C194     C      0.810350000000     0.996940000000     0.322860000000     0.0328831  
C195     C      0.795140000000     0.970970000000     0.316800000000    -0.086328   
C196     C      0.764420000000     0.970870000000     0.317230000000     0.0695654  
C197     C      0.763760000000     0.021840000000     0.328260000000     0.070899   
C198     C      0.842760000000     0.997270000000     0.323650000000     0.0330253  
C199     C      0.859110000000     0.992030000000     0.298190000000    -0.0864256  
C200     C      0.889810000000     0.992880000000     0.299370000000     0.0694968  
C201     C      0.888190000000     0.002840000000     0.350550000000     0.0711713  
C202     C      0.857500000000     0.002890000000     0.349970000000    -0.0853297  
C203     C      0.663450000000     0.021740000000     0.189680000000    -0.0853219  
C204     C      0.658020000000     0.995910000000     0.174010000000     0.0330422  
C205     C      0.652620000000     0.969920000000     0.189420000000    -0.0864749  
C206     C      0.653240000000     0.970050000000     0.220130000000     0.0697081  
C207     C      0.663200000000     0.021250000000     0.220370000000     0.0710645  
C208     C      0.658610000000     0.995980000000     0.141630000000     0.0329945  
C209     C      0.633020000000     0.990740000000     0.125490000000    -0.0863051  
C210     C      0.634040000000     0.991140000000     0.094780000000     0.0696608  
C211     C      0.685300000000     0.000770000000     0.096010000000     0.0713683  
C212     C      0.684890000000     0.001240000000     0.126680000000    -0.0853389  
C213     C      0.460060000000     0.968670000000     0.323120000000    -0.0847932  
C214     C      0.476490000000     0.994190000000     0.328750000000     0.0329708  
C215     C      0.461070000000     0.020050000000     0.335550000000    -0.0838627  
C216     C      0.430400000000     0.020160000000     0.335890000000     0.0712601  
C217     C      0.429360000000     0.969370000000     0.324550000000     0.069764   
C218     C      0.509380000000     0.993990000000     0.327510000000     0.0328563  
C219     C      0.525520000000     0.968460000000     0.333920000000    -0.0847334  
C220     C      0.556220000000     0.968790000000     0.332560000000     0.0696126  
C221     C      0.555780000000     0.019240000000     0.319740000000     0.0712514  
C222     C      0.525110000000     0.019470000000     0.320000000000    -0.0837727  
C223     C      0.190690000000     0.973580000000     0.329920000000    -0.0853965  
C224     C      0.175610000000     0.999960000000     0.334130000000     0.0300758  
C225     C      0.191580000000     0.025790000000     0.338600000000    -0.0838939  
C226     C      0.222300000000     0.024910000000     0.338250000000     0.0705243  
C227     C      0.221360000000     0.973360000000     0.330350000000     0.0693269  
C228     C      0.143260000000     0.000490000000     0.333240000000     0.0386791  
C229     C      0.128520000000     0.995690000000     0.306760000000    -0.0895265  
C230     C      0.097840000000     0.995930000000     0.306170000000     0.0697743  
C231     C      0.096250000000     0.004700000000     0.357580000000     0.0710217  
C232     C      0.126950000000     0.005250000000     0.358810000000    -0.087915   
C233     C      0.298110000000     0.993700000000     0.133670000000    -0.0863902  
C234     C      0.323710000000     0.998930000000     0.149810000000     0.0329763  
C235     C      0.350090000000     0.003640000000     0.134870000000    -0.0852388  
C236     C      0.350600000000     0.002600000000     0.104200000000     0.0712919  
C237     C      0.299250000000     0.993510000000     0.102960000000     0.0696674  
C238     C      0.323110000000     0.998900000000     0.182190000000     0.0329855  
C239     C      0.318220000000     0.972780000000     0.197530000000    -0.0865383  
C240     C      0.318940000000     0.972810000000     0.228220000000     0.069728   
C241     C      0.328000000000     0.024180000000     0.228650000000     0.070888   
C242     C      0.328130000000     0.024780000000     0.197930000000    -0.085105   
C243     C      0.323250000000     0.020290000000     0.532340000000    -0.0835757  
C244     C      0.329480000000     0.994810000000     0.516040000000     0.0329278  
C245     C      0.336310000000     0.969060000000     0.531630000000    -0.0849754  
C246     C      0.336310000000     0.969080000000     0.562330000000     0.0699816  
C247     C      0.324380000000     0.019750000000     0.563020000000     0.0711027  
C248     C      0.328920000000     0.995070000000     0.483140000000     0.0329386  
C249     C      0.322160000000     0.969580000000     0.467050000000    -0.0848747  
C250     C      0.322200000000     0.970160000000     0.436340000000     0.0699969  
C251     C      0.334100000000     0.020830000000     0.436660000000     0.0713064  
C252     C      0.335180000000     0.020830000000     0.467330000000    -0.0837712  
C253     C      0.358760000000     0.996950000000     0.865560000000    -0.0884301  
C254     C      0.333190000000     0.991790000000     0.849370000000     0.0351981  
C255     C      0.306730000000     0.987310000000     0.864240000000    -0.0873834  
C256     C      0.306130000000     0.988470000000     0.894900000000     0.0701722  
C257     C      0.357530000000     0.997290000000     0.896260000000     0.0687852  
C258     C      0.333920000000     0.991710000000     0.817000000000     0.0320928  
C259     C      0.338640000000     0.017820000000     0.801600000000    -0.0848508  
C260     C      0.338180000000     0.017670000000     0.770910000000     0.070814   
C261     C      0.329650000000     0.966210000000     0.770600000000     0.0694721  
C262     C      0.329300000000     0.965720000000     0.801320000000    -0.0859644  
C263     C      0.197390000000     0.018990000000     0.672760000000    -0.0847613  
C264     C      0.181850000000     0.993090000000     0.667350000000     0.0321303  
C265     C      0.197380000000     0.967090000000     0.662350000000    -0.0860063  
C266     C      0.228090000000     0.967340000000     0.663030000000     0.069468   
C267     C      0.228090000000     0.018620000000     0.672600000000     0.070756   
C268     C      0.149480000000     0.993260000000     0.666620000000     0.0352685  
C269     C      0.133340000000     0.997850000000     0.692320000000    -0.0884747  
C270     C      0.102640000000     0.997700000000     0.691240000000     0.0690301  
C271     C      0.103860000000     0.989620000000     0.639710000000     0.0702279  
C272     C      0.134550000000     0.988960000000     0.640150000000    -0.0872163  
C273     C      0.670590000000     0.019640000000     0.523650000000    -0.0837051  
C274     C      0.663630000000     0.994070000000     0.507810000000     0.0328702  
C275     C      0.657370000000     0.968440000000     0.523830000000    -0.0849547  
C276     C      0.658490000000     0.968690000000     0.554520000000     0.0697987  
C277     C      0.670690000000     0.019300000000     0.554340000000     0.0710479  
C278     C      0.662910000000     0.994180000000     0.474930000000     0.0328884  
C279     C      0.655610000000     0.019750000000     0.459250000000    -0.0837126  
C280     C      0.655510000000     0.019600000000     0.428550000000     0.0710571  
C281     C      0.668390000000     0.969160000000     0.428070000000     0.069768   
C282     C      0.669520000000     0.968730000000     0.458760000000    -0.0849965  
C283     C      0.531360000000     0.019160000000     0.654190000000    -0.0836293  
C284     C      0.515690000000     0.993720000000     0.661990000000     0.0328888  
C285     C      0.531900000000     0.968360000000     0.668850000000    -0.0849749  
C286     C      0.562560000000     0.968700000000     0.667400000000     0.0698958  
C287     C      0.562060000000     0.018970000000     0.653880000000     0.0710988  
C288     C      0.482790000000     0.993630000000     0.662960000000     0.0329688  
C289     C      0.466940000000     0.019400000000     0.669120000000    -0.0836989  
C290     C      0.436240000000     0.019000000000     0.669480000000     0.0711615  
C291     C      0.436110000000     0.967960000000     0.659200000000     0.0699806  
C292     C      0.466770000000     0.967760000000     0.657740000000    -0.0849836  
C293     C      0.801070000000     0.968450000000     0.652150000000    -0.0866516  
C294     C      0.816570000000     0.994240000000     0.658240000000     0.0334922  
C295     C      0.800970000000     0.020080000000     0.663830000000    -0.0853824  
C296     C      0.770280000000     0.019810000000     0.663030000000     0.0710707  
C297     C      0.770370000000     0.968770000000     0.652260000000     0.0697975  
C298     C      0.848960000000     0.994140000000     0.659000000000     0.0316847  
C299     C      0.865130000000     0.988060000000     0.633630000000    -0.0856676  
C300     C      0.895820000000     0.988420000000     0.634690000000     0.0691967  
C301     C      0.894560000000     0.999580000000     0.685640000000     0.065641   
C302     C      0.863880000000     0.000120000000     0.685160000000    -0.0819332  
C303     C      0.673520000000     0.968530000000     0.793240000000    -0.0861217  
C304     C      0.667690000000     0.994360000000     0.808750000000     0.0322064  
C305     C      0.662000000000     0.020200000000     0.793190000000    -0.0849706  
C306     C      0.662420000000     0.019870000000     0.762500000000     0.0709026  
C307     C      0.673070000000     0.968810000000     0.762530000000     0.0695013  
C308     C      0.666970000000     0.994270000000     0.841140000000     0.0352454  
C309     C      0.640530000000     0.998890000000     0.855990000000    -0.0886428  
C310     C      0.640040000000     0.998460000000     0.886670000000     0.0689766  
C311     C      0.691500000000     0.989980000000     0.888050000000     0.0700527  
C312     C      0.692620000000     0.989570000000     0.857350000000    -0.0871879  
C313     C      0.305350000000     0.860370000000     0.995010000000    -0.0890223  
C314     C      0.331570000000     0.845290000000     0.000190000000     0.037776   
C315     C      0.357170000000     0.861310000000     0.005770000000    -0.087807   
C316     C      0.356250000000     0.892020000000     0.005580000000     0.0709695  
C317     C      0.305040000000     0.891040000000     0.995710000000     0.0699231  
C318     C      0.332110000000     0.812900000000     0.999710000000     0.0309342  
C319     C      0.338310000000     0.797050000000     0.025260000000    -0.0845368  
C320     C      0.337720000000     0.766360000000     0.024620000000     0.0703842  
C321     C      0.326230000000     0.766970000000     0.973730000000     0.0693121  
C322     C      0.325920000000     0.797660000000     0.973790000000    -0.0854982  
C323     C      0.132390000000     0.637530000000     0.995670000000    -0.0877985  
C324     C      0.147830000000     0.663570000000     0.000700000000     0.0352638  
C325     C      0.132180000000     0.689440000000     0.006020000000    -0.0867023  
C326     C      0.101480000000     0.688980000000     0.005740000000     0.070507   
C327     C      0.101700000000     0.637680000000     0.996260000000     0.0694735  
C328     C      0.180220000000     0.663750000000     0.000250000000     0.0357699  
C329     C      0.195400000000     0.658210000000     0.974150000000    -0.0882679  
C330     C      0.226100000000     0.658610000000     0.974030000000     0.0704421  
C331     C      0.226820000000     0.668860000000     0.025180000000     0.071358   
C332     C      0.196120000000     0.669340000000     0.025900000000    -0.0872543  
C333     C      0.465470000000     0.654660000000     0.021960000000    -0.0839799  
C334     C      0.481100000000     0.661590000000     0.996260000000     0.0331924  
C335     C      0.464890000000     0.668400000000     0.970900000000    -0.0850504  
C336     C      0.434200000000     0.667920000000     0.971560000000     0.0699288  
C337     C      0.434780000000     0.655190000000     0.022050000000     0.0708812  
C338     C      0.513970000000     0.661820000000     0.995960000000     0.0332815  
C339     C      0.530010000000     0.668740000000     0.021390000000    -0.0842399  
C340     C      0.560690000000     0.668400000000     0.020900000000     0.0711031  
C341     C      0.560460000000     0.655840000000     0.970370000000     0.0698596  
C342     C      0.529760000000     0.655160000000     0.970280000000    -0.0849909  
C343     C      0.670240000000     0.797040000000     0.020300000000    -0.0851302  
C344     C      0.664280000000     0.812300000000     0.994330000000     0.0326858  
C345     C      0.658530000000     0.796470000000     0.968670000000    -0.0863118  
C346     C      0.659150000000     0.765790000000     0.969270000000     0.0698212  
C347     C      0.669950000000     0.766320000000     0.020300000000     0.0705768  
C348     C      0.663990000000     0.844700000000     0.993970000000     0.0350083  
C349     C      0.638090000000     0.859930000000     0.987680000000    -0.0870891  
C350     C      0.638130000000     0.890630000000     0.987540000000     0.0701636  
C351     C      0.689100000000     0.891260000000     0.998630000000     0.0690876  
C352     C      0.689640000000     0.860570000000     0.999680000000    -0.0880548  
C353     C      0.799130000000     0.656140000000     0.022080000000    -0.0855958  
C354     C      0.814880000000     0.662020000000     0.996390000000     0.0332879  
C355     C      0.799520000000     0.667790000000     0.970430000000    -0.0864967  
C356     C      0.768810000000     0.667260000000     0.970480000000     0.0697388  
C357     C      0.768440000000     0.656520000000     0.021530000000     0.0708528  
C358     C      0.847280000000     0.662140000000     0.996740000000     0.0332524  
C359     C      0.862850000000     0.636490000000     0.003240000000    -0.0854975  
C360     C      0.893540000000     0.636940000000     0.003400000000     0.0707505  
C361     C      0.893510000000     0.687820000000     0.991890000000     0.0696791  
C362     C      0.862820000000     0.687940000000     0.990810000000    -0.0865471  
C363     C      0.321860000000     0.463230000000     0.971490000000    -0.0849035  
C364     C      0.327830000000     0.479110000000     0.997290000000     0.0332151  
C365     C      0.333420000000     0.463090000000     0.023090000000    -0.0839886  
C366     C      0.332390000000     0.432410000000     0.022820000000     0.0711206  
C367     C      0.321960000000     0.432520000000     0.971810000000     0.0699725  
C368     C      0.328220000000     0.512020000000     0.997340000000     0.0332819  
C369     C      0.335520000000     0.527960000000     0.971920000000    -0.0849506  
C370     C      0.335390000000     0.558670000000     0.972310000000     0.069963   
C371     C      0.322320000000     0.558640000000     0.022700000000     0.0710792  
C372     C      0.321290000000     0.527970000000     0.022850000000    -0.0841552  
C373     C      0.190790000000     0.325270000000     0.024530000000    -0.085402   
C374     C      0.175250000000     0.330290000000     0.998520000000     0.0333883  
C375     C      0.190800000000     0.335080000000     0.972510000000    -0.0867017  
C376     C      0.221470000000     0.334390000000     0.972780000000     0.070051   
C377     C      0.221520000000     0.325450000000     0.024170000000     0.0707531  
C378     C      0.142850000000     0.330400000000     0.998350000000     0.0332845  
C379     C      0.127170000000     0.304600000000     0.003910000000    -0.0853951  
C380     C      0.096490000000     0.304820000000     0.002410000000     0.070956   
C381     C      0.096750000000     0.355780000000     0.991290000000     0.0699298  
C382     C      0.127440000000     0.356150000000     0.991900000000    -0.0865017  
C383     C      0.351170000000     0.130820000000     0.003230000000    -0.0856463  
C384     C      0.324900000000     0.145790000000     0.997990000000     0.0333825  
C385     C      0.299290000000     0.129690000000     0.992760000000    -0.0864765  
C386     C      0.300250000000     0.098990000000     0.993280000000     0.0698702  
C387     C      0.351520000000     0.100140000000     0.002880000000     0.0710889  
C388     C      0.324300000000     0.178170000000     0.998030000000     0.0332843  
C389     C      0.329540000000     0.193760000000     0.023950000000    -0.0855767  
C390     C      0.329130000000     0.224450000000     0.023590000000     0.0708353  
C391     C      0.319390000000     0.224370000000     0.972330000000     0.0696904  
C392     C      0.318940000000     0.193660000000     0.972080000000    -0.0864088  
C393     C      0.655720000000     0.527340000000     0.020840000000    -0.0838527  
C394     C      0.662480000000     0.511410000000     0.995270000000     0.0332062  
C395     C      0.670210000000     0.527330000000     0.969990000000    -0.0850835  
C396     C      0.670400000000     0.558010000000     0.970460000000     0.0700477  
C397     C      0.657020000000     0.558030000000     0.020780000000     0.0707184  
C398     C      0.661480000000     0.478520000000     0.994910000000     0.0333024  
C399     C      0.666950000000     0.462100000000     0.020470000000    -0.0840655  
C400     C      0.665750000000     0.431430000000     0.019720000000     0.0710336  
C401     C      0.655010000000     0.432400000000     0.968790000000     0.0701184  
C402     C      0.655130000000     0.463090000000     0.968940000000    -0.0850463  
C403     C      0.525550000000     0.320820000000     0.020870000000    -0.0839317  
C404     C      0.509150000000     0.327400000000     0.995530000000     0.0332053  
C405     C      0.524640000000     0.334260000000     0.969730000000    -0.0850453  
C406     C      0.555320000000     0.333890000000     0.969520000000     0.0700426  
C407     C      0.556250000000     0.321550000000     0.020090000000     0.0709109  
C408     C      0.476240000000     0.327220000000     0.995970000000     0.0331999  
C409     C      0.460600000000     0.333600000000     0.021800000000    -0.0839874  
C410     C      0.429900000000     0.333150000000     0.021840000000     0.0709168  
C411     C      0.429290000000     0.321450000000     0.971120000000     0.070005   
C412     C      0.459980000000     0.320810000000     0.970500000000    -0.0849743  
C413     C      0.857760000000     0.355490000000     0.992380000000    -0.0870993  
C414     C      0.842430000000     0.329240000000     0.988190000000     0.034552   
C415     C      0.858150000000     0.303200000000     0.984110000000    -0.0870076  
C416     C      0.888850000000     0.303720000000     0.984800000000     0.0698848  
C417     C      0.888460000000     0.355340000000     0.992350000000     0.069974   
C418     C      0.810080000000     0.328920000000     0.988770000000     0.0327972  
C419     C      0.795100000000     0.332480000000     0.015310000000    -0.0853632  
C420     C      0.764420000000     0.331820000000     0.015660000000     0.0706811  
C421     C      0.763300000000     0.325080000000     0.963930000000     0.0695834  
C422     C      0.794010000000     0.325030000000     0.962910000000    -0.0861421  
C423     C      0.635290000000     0.129440000000     0.985600000000    -0.086971   
C424     C      0.661230000000     0.145250000000     0.989970000000     0.0347067  
C425     C      0.687490000000     0.130000000000     0.994390000000    -0.0870728  
C426     C      0.687480000000     0.099300000000     0.994120000000     0.0702269  
C427     C      0.635930000000     0.098740000000     0.986150000000     0.0702074  
C428     C      0.660840000000     0.177630000000     0.990290000000     0.0328944  
C429     C      0.666170000000     0.192890000000     0.016370000000    -0.0853188  
C430     C      0.665430000000     0.223570000000     0.016450000000     0.0707563  
C431     C      0.655250000000     0.224130000000     0.965280000000     0.0696307  
C432     C      0.655150000000     0.193430000000     0.964590000000    -0.0861956  
Cu1      Cu     0.659010000000     0.328370000000     0.965340000000     0.845219   
Cu2      Cu     0.660620000000     0.327430000000     0.019540000000     0.847319   
Cu3      Cu     0.325970000000     0.328560000000     0.024730000000     0.846965   
Cu4      Cu     0.325130000000     0.328360000000     0.970490000000     0.845839   
Cu5      Cu     0.664520000000     0.662160000000     0.022620000000     0.846861   
Cu6      Cu     0.664660000000     0.661900000000     0.968430000000     0.845187   
Cu7      Cu     0.330150000000     0.662880000000     0.971140000000     0.844734   
Cu8      Cu     0.330820000000     0.662410000000     0.025320000000     0.847315   
Cu9      Cu     0.666360000000     0.967000000000     0.658540000000     0.844312   
Cu10     Cu     0.666240000000     0.021190000000     0.658400000000     0.847672   
Cu11     Cu     0.332080000000     0.020270000000     0.667180000000     0.847804   
Cu12     Cu     0.332250000000     0.966050000000     0.666210000000     0.844967   
Cu13     Cu     0.325130000000     0.969850000000     0.331960000000     0.845021   
Cu14     Cu     0.326600000000     0.024060000000     0.333020000000     0.847775   
Cu15     Cu     0.659700000000     0.022050000000     0.324430000000     0.84864    
Cu16     Cu     0.660350000000     0.967870000000     0.324130000000     0.842473   
Cu17     Cu     0.971540000000     0.661080000000     0.667200000000     0.844125   
Cu18     Cu     0.025730000000     0.660970000000     0.666620000000     0.847538   
Cu19     Cu     0.971430000000     0.327090000000     0.659370000000     0.845585   
Cu20     Cu     0.025650000000     0.326640000000     0.659280000000     0.846034   
Cu21     Cu     0.021940000000     0.665980000000     0.332710000000     0.848245   
Cu22     Cu     0.967750000000     0.666300000000     0.332870000000     0.843375   
Cu23     Cu     0.966260000000     0.331780000000     0.326050000000     0.845166   
Cu24     Cu     0.020470000000     0.332200000000     0.324110000000     0.847134   
Cu25     Cu     0.992600000000     0.357000000000     0.991650000000     0.844301   
Cu26     Cu     0.992720000000     0.302810000000     0.992840000000     0.843      
Cu27     Cu     0.997440000000     0.690000000000     0.999350000000     0.841456   
Cu28     Cu     0.997650000000     0.635810000000     0.000280000000     0.848463   
Cu29     Cu     0.994090000000     0.998110000000     0.301330000000     0.841964   
Cu30     Cu     0.991990000000     0.000070000000     0.355500000000     0.848822   
Cu31     Cu     0.999900000000     0.992980000000     0.635740000000     0.842238   
Cu32     Cu     0.998500000000     0.994960000000     0.689920000000     0.843752   
Cu33     Cu     0.635590000000     0.994710000000     0.990460000000     0.84493    
Cu34     Cu     0.689790000000     0.995240000000     0.992310000000     0.8446     
Cu35     Cu     0.301220000000     0.994790000000     0.998560000000     0.84357    
Cu36     Cu     0.355400000000     0.996300000000     0.000590000000     0.848315   
H1       H      0.002340000000     0.144070000000     0.277680000000     0.0547079  
H2       H      0.001330000000     0.090520000000     0.279200000000     0.0284056  
H3       H      0.984140000000     0.093140000000     0.371740000000     0.0262856  
H4       H      0.984170000000     0.146570000000     0.370510000000     0.0528977  
H5       H      0.946860000000     0.185780000000     0.331820000000     0.0524704  
H6       H      0.947080000000     0.239220000000     0.331410000000     0.0265233  
H7       H      0.039870000000     0.239210000000     0.315410000000     0.0265112  
H8       H      0.039950000000     0.185630000000     0.314840000000     0.0527053  
H9       H      0.035840000000     0.340450000000     0.177650000000     0.0529363  
H10      H      0.037040000000     0.340050000000     0.231100000000     0.0264989  
H11      H      0.943830000000     0.326950000000     0.233560000000     0.0265323  
H12      H      0.942300000000     0.326410000000     0.180000000000     0.0525286  
H13      H      0.979580000000     0.286470000000     0.139220000000     0.0527876  
H14      H      0.980670000000     0.285630000000     0.085710000000     0.026413   
H15      H      0.997450000000     0.378260000000     0.084200000000     0.0264129  
H16      H      0.997310000000     0.379400000000     0.137700000000     0.0526578  
H17      H      0.947920000000     0.521130000000     0.317240000000     0.0504081  
H18      H      0.948530000000     0.574050000000     0.319820000000     0.0264075  
H19      H      0.039650000000     0.572780000000     0.343040000000     0.0262511  
H20      H      0.039400000000     0.519770000000     0.343000000000     0.0504596  
H21      H      0.039220000000     0.477890000000     0.316100000000     0.0503463  
H22      H      0.038840000000     0.424940000000     0.315780000000     0.026204   
H23      H      0.947560000000     0.424510000000     0.338410000000     0.0262888  
H24      H      0.947560000000     0.477480000000     0.341280000000     0.0503957  
H25      H      0.949190000000     0.812430000000     0.344380000000     0.0525605  
H26      H      0.949310000000     0.758950000000     0.343960000000     0.0264934  
H27      H      0.041280000000     0.758860000000     0.323800000000     0.0263944  
H28      H      0.041420000000     0.812370000000     0.323170000000     0.0525644  
H29      H      0.985240000000     0.854030000000     0.379230000000     0.0520401  
H30      H      0.985030000000     0.907560000000     0.377580000000     0.0263127  
H31      H      0.003590000000     0.905150000000     0.285300000000     0.029072   
H32      H      0.004850000000     0.851730000000     0.286660000000     0.0516878  
H33      H      0.040880000000     0.655380000000     0.186690000000     0.0525818  
H34      H      0.040710000000     0.656440000000     0.240140000000     0.0265208  
H35      H      0.948800000000     0.676860000000     0.239920000000     0.0263992  
H36      H      0.948710000000     0.676850000000     0.186370000000     0.0524247  
H37      H      0.984520000000     0.711540000000     0.145120000000     0.0522257  
H38      H      0.985810000000     0.710480000000     0.091620000000     0.0263803  
H39      H      0.005580000000     0.618460000000     0.093490000000     0.0269122  
H40      H      0.005340000000     0.619240000000     0.146970000000     0.0528959  
H41      H      0.951340000000     0.317390000000     0.471540000000     0.0503062  
H42      H      0.950410000000     0.319350000000     0.418690000000     0.0261451  
H43      H      0.041980000000     0.340610000000     0.416870000000     0.0262133  
H44      H      0.043330000000     0.341300000000     0.469930000000     0.0504308  
H45      H      0.043660000000     0.316410000000     0.513050000000     0.05038    
H46      H      0.043910000000     0.317070000000     0.566100000000     0.0262666  
H47      H      0.952840000000     0.340450000000     0.567090000000     0.0262968  
H48      H      0.952240000000     0.342470000000     0.514200000000     0.0504018  
H49      H      0.045200000000     0.321170000000     0.805940000000     0.0526958  
H50      H      0.045250000000     0.321180000000     0.752370000000     0.0263624  
H51      H      0.951510000000     0.330090000000     0.751950000000     0.0265507  
H52      H      0.951090000000     0.330870000000     0.805420000000     0.0527518  
H53      H      0.989640000000     0.373420000000     0.844850000000     0.0527003  
H54      H      0.988700000000     0.374390000000     0.898330000000     0.0264288  
H55      H      0.004170000000     0.281540000000     0.900700000000     0.0268255  
H56      H      0.005930000000     0.280260000000     0.847180000000     0.0528712  
H57      H      0.991870000000     0.138930000000     0.611590000000     0.0526552  
H58      H      0.992840000000     0.085380000000     0.613190000000     0.0265651  
H59      H      0.004700000000     0.088080000000     0.706570000000     0.0269488  
H60      H      0.004580000000     0.141520000000     0.705310000000     0.0530325  
H61      H      0.951500000000     0.180600000000     0.649860000000     0.0526929  
H62      H      0.951720000000     0.234170000000     0.650350000000     0.0265291  
H63      H      0.044730000000     0.233970000000     0.665080000000     0.0265261  
H64      H      0.044820000000     0.180510000000     0.665450000000     0.0528209  
H65      H      0.041850000000     0.676880000000     0.478160000000     0.0504123  
H66      H      0.041040000000     0.676490000000     0.425200000000     0.0263393  
H67      H      0.949820000000     0.653690000000     0.425820000000     0.0262894  
H68      H      0.950240000000     0.651550000000     0.478830000000     0.0504318  
H69      H      0.950950000000     0.676400000000     0.522100000000     0.0503591  
H70      H      0.951910000000     0.674300000000     0.575050000000     0.0263642  
H71      H      0.042940000000     0.650770000000     0.573370000000     0.0262771  
H72      H      0.042350000000     0.650350000000     0.520360000000     0.0504642  
H73      H      0.953000000000     0.472220000000     0.675110000000     0.0502666  
H74      H      0.953190000000     0.419340000000     0.672480000000     0.0262205  
H75      H      0.044580000000     0.419820000000     0.650360000000     0.0262351  
H76      H      0.044780000000     0.472860000000     0.650380000000     0.050479   
H77      H      0.044540000000     0.515130000000     0.676630000000     0.0504141  
H78      H      0.044220000000     0.568120000000     0.676710000000     0.0263421  
H79      H      0.953080000000     0.568510000000     0.653570000000     0.0262774  
H80      H      0.953040000000     0.515590000000     0.650880000000     0.0504023  
H81      H      0.988830000000     0.849030000000     0.713480000000     0.0521337  
H82      H      0.989460000000     0.902560000000     0.711860000000     0.0261915  
H83      H      0.008930000000     0.899910000000     0.619780000000     0.0265765  
H84      H      0.009350000000     0.846490000000     0.621110000000     0.0527571  
H85      H      0.953040000000     0.807430000000     0.679120000000     0.0523523  
H86      H      0.953030000000     0.753900000000     0.678690000000     0.0264535  
H87      H      0.044840000000     0.753650000000     0.657820000000     0.0264844  
H88      H      0.045110000000     0.807110000000     0.657200000000     0.0524898  
H89      H      0.045960000000     0.670390000000     0.812900000000     0.0525079  
H90      H      0.045560000000     0.669720000000     0.759380000000     0.0264418  
H91      H      0.953500000000     0.649980000000     0.759920000000     0.0264936  
H92      H      0.953630000000     0.649600000000     0.813400000000     0.0524504  
H93      H      0.009800000000     0.706730000000     0.852990000000     0.0527076  
H94      H      0.008740000000     0.707420000000     0.906470000000     0.0266605  
H95      H      0.989780000000     0.615200000000     0.907710000000     0.0262429  
H96      H      0.989800000000     0.614240000000     0.854210000000     0.0523764  
H97      H      0.806930000000     0.950780000000     0.312260000000     0.0524511  
H98      H      0.753390000000     0.950230000000     0.312700000000     0.0264385  
H99      H      0.752220000000     0.042180000000     0.332860000000     0.0264814  
H100     H      0.805680000000     0.042990000000     0.333470000000     0.0525537  
H101     H      0.848230000000     0.987660000000     0.277460000000     0.0522993  
H102     H      0.901760000000     0.988880000000     0.279140000000     0.0262159  
H103     H      0.898790000000     0.007150000000     0.371460000000     0.0265707  
H104     H      0.845370000000     0.006980000000     0.370060000000     0.0528033  
H105     H      0.648440000000     0.949560000000     0.177800000000     0.05266    
H106     H      0.649200000000     0.949400000000     0.231330000000     0.0265042  
H107     H      0.667450000000     0.041760000000     0.231740000000     0.0264861  
H108     H      0.667700000000     0.042200000000     0.178250000000     0.0526976  
H109     H      0.612320000000     0.986640000000     0.136550000000     0.0525318  
H110     H      0.613730000000     0.987100000000     0.083000000000     0.0264834  
H111     H      0.706190000000     0.004760000000     0.085230000000     0.0267474  
H112     H      0.705070000000     0.005320000000     0.138670000000     0.0528376  
H113     H      0.472440000000     0.040220000000     0.340970000000     0.0504736  
H114     H      0.419540000000     0.040720000000     0.341160000000     0.0261714  
H115     H      0.417610000000     0.949140000000     0.319970000000     0.0262009  
H116     H      0.470620000000     0.948210000000     0.317160000000     0.0503519  
H117     H      0.514720000000     0.948310000000     0.340460000000     0.0504368  
H118     H      0.567730000000     0.948570000000     0.337760000000     0.0263207  
H119     H      0.566880000000     0.039510000000     0.313900000000     0.0262949  
H120     H      0.513970000000     0.039600000000     0.313960000000     0.0504117  
H121     H      0.180400000000     0.046560000000     0.341860000000     0.0524488  
H122     H      0.233980000000     0.045430000000     0.341530000000     0.026586   
H123     H      0.232230000000     0.952420000000     0.327010000000     0.0265986  
H124     H      0.178810000000     0.953230000000     0.326410000000     0.0522891  
H125     H      0.140650000000     0.991930000000     0.286610000000     0.0533694  
H126     H      0.087230000000     0.992190000000     0.285160000000     0.0265299  
H127     H      0.084320000000     0.008270000000     0.377900000000     0.0268183  
H128     H      0.137870000000     0.008950000000     0.379650000000     0.053763   
H129     H      0.370290000000     0.007640000000     0.146860000000     0.0530025  
H130     H      0.371570000000     0.006150000000     0.093440000000     0.0267876  
H131     H      0.278930000000     0.989470000000     0.091180000000     0.026454   
H132     H      0.277350000000     0.989960000000     0.144730000000     0.0525019  
H133     H      0.314370000000     0.952380000000     0.185860000000     0.0526735  
H134     H      0.315300000000     0.952040000000     0.239320000000     0.0264236  
H135     H      0.331940000000     0.044700000000     0.240110000000     0.0264574  
H136     H      0.332010000000     0.045340000000     0.186550000000     0.0527113  
H137     H      0.342070000000     0.948910000000     0.520390000000     0.0504214  
H138     H      0.341700000000     0.948640000000     0.573340000000     0.0262001  
H139     H      0.319430000000     0.039970000000     0.574630000000     0.0261899  
H140     H      0.317100000000     0.040630000000     0.521660000000     0.0504115  
H141     H      0.316410000000     0.949230000000     0.477930000000     0.0503708  
H142     H      0.316850000000     0.949940000000     0.424910000000     0.0261281  
H143     H      0.339070000000     0.041300000000     0.425480000000     0.0261612  
H144     H      0.341330000000     0.040970000000     0.478380000000     0.0504699  
H145     H      0.286550000000     0.983370000000     0.852200000000     0.0527063  
H146     H      0.285110000000     0.985080000000     0.905630000000     0.0261415  
H147     H      0.377830000000     0.001270000000     0.908080000000     0.0277241  
H148     H      0.379580000000     0.000530000000     0.854550000000     0.0542285  
H149     H      0.342210000000     0.038300000000     0.813230000000     0.0526612  
H150     H      0.341690000000     0.038440000000     0.759760000000     0.0264731  
H151     H      0.326020000000     0.945600000000     0.759180000000     0.0264886  
H152     H      0.325570000000     0.945160000000     0.812760000000     0.0524571  
H153     H      0.185850000000     0.946680000000     0.658140000000     0.0525695  
H154     H      0.239370000000     0.946720000000     0.659100000000     0.0265457  
H155     H      0.239380000000     0.039220000000     0.676650000000     0.0265425  
H156     H      0.185870000000     0.039470000000     0.676670000000     0.0526875  
H157     H      0.144390000000     0.001230000000     0.713150000000     0.054225   
H158     H      0.090880000000     0.001170000000     0.711670000000     0.027887   
H159     H      0.093070000000     0.986340000000     0.618710000000     0.026437   
H160     H      0.146550000000     0.985420000000     0.619880000000     0.0529558  
H161     H      0.651180000000     0.948240000000     0.512920000000     0.0505081  
H162     H      0.653460000000     0.948360000000     0.565910000000     0.0263494  
H163     H      0.676160000000     0.039610000000     0.565560000000     0.0263341  
H164     H      0.676360000000     0.039880000000     0.512560000000     0.0503982  
H165     H      0.649580000000     0.039840000000     0.470460000000     0.0505084  
H166     H      0.649770000000     0.039900000000     0.417460000000     0.0263163  
H167     H      0.673680000000     0.948960000000     0.416570000000     0.0263303  
H168     H      0.675980000000     0.948550000000     0.469550000000     0.050424   
H169     H      0.521180000000     0.948290000000     0.675760000000     0.050392   
H170     H      0.574070000000     0.948560000000     0.672900000000     0.026285   
H171     H      0.573160000000     0.039160000000     0.647770000000     0.0262389  
H172     H      0.520160000000     0.039180000000     0.647920000000     0.0504561  
H173     H      0.477990000000     0.039860000000     0.674090000000     0.0503234  
H174     H      0.425000000000     0.039450000000     0.674310000000     0.0260391  
H175     H      0.424740000000     0.947430000000     0.655020000000     0.0261477  
H176     H      0.477630000000     0.947370000000     0.652120000000     0.0504322  
H177     H      0.812450000000     0.040420000000     0.668550000000     0.0525575  
H178     H      0.758970000000     0.040320000000     0.667420000000     0.0264323  
H179     H      0.759110000000     0.948260000000     0.647700000000     0.0264363  
H180     H      0.812620000000     0.948080000000     0.647780000000     0.0525119  
H181     H      0.854120000000     0.983390000000     0.613030000000     0.0521596  
H182     H      0.907610000000     0.983760000000     0.614510000000     0.0263639  
H183     H      0.905340000000     0.004180000000     0.706400000000     0.0284607  
H184     H      0.851870000000     0.004850000000     0.705190000000     0.0518433  
H185     H      0.657420000000     0.040540000000     0.804700000000     0.052629   
H186     H      0.657960000000     0.040380000000     0.751200000000     0.0264899  
H187     H      0.677440000000     0.948270000000     0.751250000000     0.0265251  
H188     H      0.677920000000     0.948170000000     0.804780000000     0.0524935  
H189     H      0.620300000000     0.002530000000     0.843950000000     0.0543037  
H190     H      0.619050000000     0.002020000000     0.897380000000     0.0278031  
H191     H      0.711870000000     0.986440000000     0.899900000000     0.026134   
H192     H      0.713440000000     0.985950000000     0.846350000000     0.052535   
H193     H      0.377820000000     0.850160000000     0.009840000000     0.0532848  
H194     H      0.376600000000     0.903710000000     0.009760000000     0.0262762  
H195     H      0.284220000000     0.901910000000     0.991670000000     0.0261656  
H196     H      0.285150000000     0.848490000000     0.990710000000     0.0529495  
H197     H      0.343100000000     0.808320000000     0.045690000000     0.0522118  
H198     H      0.342390000000     0.754820000000     0.044950000000     0.0265611  
H199     H      0.321390000000     0.755930000000     0.953170000000     0.02658    
H200     H      0.321060000000     0.809420000000     0.953650000000     0.0521549  
H201     H      0.143630000000     0.709960000000     0.009960000000     0.0529102  
H202     H      0.090100000000     0.709540000000     0.009720000000     0.0267088  
H203     H      0.090500000000     0.617010000000     0.992340000000     0.0266772  
H204     H      0.143990000000     0.617140000000     0.991550000000     0.0529112  
H205     H      0.183590000000     0.653850000000     0.953920000000     0.052975   
H206     H      0.237090000000     0.654310000000     0.953320000000     0.0263499  
H207     H      0.238390000000     0.673100000000     0.045580000000     0.0262882  
H208     H      0.184880000000     0.673670000000     0.046460000000     0.0529466  
H209     H      0.475660000000     0.674580000000     0.950610000000     0.0504597  
H210     H      0.422660000000     0.673390000000     0.951420000000     0.0263825  
H211     H      0.423720000000     0.649750000000     0.042450000000     0.0263118  
H212     H      0.476710000000     0.648470000000     0.042000000000     0.0505175  
H213     H      0.519110000000     0.674820000000     0.041640000000     0.0505335  
H214     H      0.572070000000     0.673860000000     0.041130000000     0.026347   
H215     H      0.571680000000     0.650520000000     0.950020000000     0.0263056  
H216     H      0.518640000000     0.649010000000     0.950170000000     0.0505154  
H217     H      0.653900000000     0.807750000000     0.948210000000     0.0524951  
H218     H      0.654710000000     0.754300000000     0.948860000000     0.0265466  
H219     H      0.674490000000     0.755240000000     0.040910000000     0.0264304  
H220     H      0.674720000000     0.808780000000     0.040540000000     0.0524472  
H221     H      0.617860000000     0.848170000000     0.983190000000     0.0526505  
H222     H      0.617560000000     0.901660000000     0.982710000000     0.0262749  
H223     H      0.709490000000     0.902790000000     0.003010000000     0.0273847  
H224     H      0.710060000000     0.849310000000     0.004540000000     0.0536435  
H225     H      0.811190000000     0.672360000000     0.950180000000     0.0524385  
H226     H      0.757670000000     0.671700000000     0.949880000000     0.0264108  
H227     H      0.757020000000     0.652030000000     0.041960000000     0.0264767  
H228     H      0.810480000000     0.651650000000     0.042530000000     0.0525845  
H229     H      0.851350000000     0.616150000000     0.007890000000     0.0526738  
H230     H      0.904840000000     0.616560000000     0.008410000000     0.0265037  
H231     H      0.904780000000     0.708320000000     0.987350000000     0.0262251  
H232     H      0.851300000000     0.708170000000     0.985780000000     0.0523096  
H233     H      0.338970000000     0.473960000000     0.043500000000     0.0504476  
H234     H      0.336810000000     0.421060000000     0.043310000000     0.0260911  
H235     H      0.317230000000     0.421250000000     0.951340000000     0.0260592  
H236     H      0.316650000000     0.474250000000     0.951070000000     0.0503123  
H237     H      0.341770000000     0.516990000000     0.951770000000     0.0504679  
H238     H      0.341180000000     0.569990000000     0.952140000000     0.0262412  
H239     H      0.316850000000     0.569940000000     0.042970000000     0.0262458  
H240     H      0.314690000000     0.517050000000     0.042910000000     0.0505044  
H241     H      0.179290000000     0.338970000000     0.952020000000     0.0527287  
H242     H      0.232710000000     0.338030000000     0.952080000000     0.0264532  
H243     H      0.232840000000     0.321600000000     0.044790000000     0.0264095  
H244     H      0.179250000000     0.321520000000     0.045030000000     0.0526822  
H245     H      0.138580000000     0.284290000000     0.008860000000     0.052893   
H246     H      0.085100000000     0.284310000000     0.006590000000     0.0269126  
H247     H      0.085590000000     0.376230000000     0.986250000000     0.0266564  
H248     H      0.139070000000     0.376470000000     0.987490000000     0.0526489  
H249     H      0.278610000000     0.140770000000     0.988660000000     0.0526171  
H250     H      0.279900000000     0.087240000000     0.989330000000     0.0265361  
H251     H      0.372370000000     0.089340000000     0.006930000000     0.0267345  
H252     H      0.371370000000     0.142780000000     0.007280000000     0.0529549  
H253     H      0.333740000000     0.182280000000     0.044390000000     0.0527746  
H254     H      0.333220000000     0.235770000000     0.044160000000     0.026471   
H255     H      0.315380000000     0.235620000000     0.951710000000     0.0264977  
H256     H      0.314880000000     0.182100000000     0.951650000000     0.0526099  
H257     H      0.676470000000     0.516350000000     0.949840000000     0.0504526  
H258     H      0.676420000000     0.569290000000     0.950340000000     0.0263215  
H259     H      0.651550000000     0.569360000000     0.041020000000     0.0262702  
H260     H      0.648950000000     0.516390000000     0.040840000000     0.0504627  
H261     H      0.672640000000     0.472660000000     0.041010000000     0.0503706  
H262     H      0.670200000000     0.419730000000     0.040010000000     0.0261045  
H263     H      0.650090000000     0.421490000000     0.948170000000     0.0261103  
H264     H      0.649900000000     0.474460000000     0.948710000000     0.0504618  
H265     H      0.513320000000     0.340330000000     0.949710000000     0.0504645  
H266     H      0.566230000000     0.339300000000     0.949030000000     0.0262543  
H267     H      0.567950000000     0.316300000000     0.040190000000     0.0261541  
H268     H      0.514930000000     0.314680000000     0.041240000000     0.0504209  
H269     H      0.471810000000     0.339410000000     0.041960000000     0.0504457  
H270     H      0.418850000000     0.338260000000     0.042340000000     0.0262009  
H271     H      0.417730000000     0.316430000000     0.950880000000     0.0261758  
H272     H      0.470700000000     0.314940000000     0.950100000000     0.0503985  
H273     H      0.846770000000     0.282530000000     0.980870000000     0.0527491  
H274     H      0.900280000000     0.283030000000     0.981810000000     0.0262886  
H275     H      0.899570000000     0.376150000000     0.995690000000     0.0263378  
H276     H      0.846070000000     0.375990000000     0.995610000000     0.0528147  
H277     H      0.807060000000     0.335490000000     0.035690000000     0.0529018  
H278     H      0.753610000000     0.334550000000     0.036730000000     0.0264989  
H279     H      0.751570000000     0.322150000000     0.943400000000     0.0265151  
H280     H      0.805130000000     0.322230000000     0.942020000000     0.0525977  
H281     H      0.707930000000     0.141750000000     0.997820000000     0.052622   
H282     H      0.708320000000     0.088250000000     0.997540000000     0.0262948  
H283     H      0.615310000000     0.087230000000     0.982890000000     0.0264028  
H284     H      0.614600000000     0.140740000000     0.982180000000     0.0528081  
H285     H      0.670590000000     0.181160000000     0.036630000000     0.0528085  
H286     H      0.669550000000     0.234620000000     0.037170000000     0.026557   
H287     H      0.650920000000     0.235650000000     0.944870000000     0.0264757  
H288     H      0.650970000000     0.182100000000     0.944050000000     0.0525661  
N1       N      0.992720000000     0.087860000000     0.325570000000    -0.192427   
N2       N      0.993510000000     0.243190000000     0.323490000000    -0.193042   
N3       N      0.990540000000     0.333440000000     0.236310000000    -0.193094   
N4       N      0.989220000000     0.331850000000     0.080980000000    -0.192576   
N5       N      0.994140000000     0.577370000000     0.331490000000    -0.193195   
N6       N      0.993190000000     0.420770000000     0.327030000000    -0.193199   
N7       N      0.995280000000     0.754930000000     0.333800000000    -0.193157   
N8       N      0.994220000000     0.910330000000     0.331330000000    -0.191654   
N9       N      0.994730000000     0.666650000000     0.244000000000    -0.193175   
N10      N      0.995790000000     0.664410000000     0.088590000000    -0.193436   
N11      N      0.996090000000     0.330150000000     0.413840000000    -0.193176   
N12      N      0.998380000000     0.328610000000     0.570530000000    -0.193175   
N13      N      0.998410000000     0.325670000000     0.748170000000    -0.192916   
N14      N      0.996270000000     0.328040000000     0.903500000000    -0.193336   
N15      N      0.998810000000     0.082750000000     0.659980000000    -0.193183   
N16      N      0.998210000000     0.238060000000     0.657790000000    -0.193057   
N17      N      0.995390000000     0.665110000000     0.421560000000    -0.193353   
N18      N      0.997490000000     0.662480000000     0.578160000000    -0.193307   
N19      N      0.998890000000     0.415640000000     0.661290000000    -0.193207   
N20      N      0.998640000000     0.572260000000     0.665230000000    -0.193207   
N21      N      0.999190000000     0.905210000000     0.665720000000    -0.193126   
N22      N      0.998900000000     0.749810000000     0.668190000000    -0.193036   
N23      N      0.999500000000     0.659900000000     0.755680000000    -0.193234   
N24      N      0.999170000000     0.661380000000     0.911060000000    -0.193602   
N25      N      0.748830000000     0.996130000000     0.322850000000    -0.192885   
N26      N      0.904260000000     0.998050000000     0.325410000000    -0.193261   
N27      N      0.658420000000     0.995540000000     0.235500000000    -0.193031   
N28      N      0.660050000000     0.995890000000     0.080150000000    -0.193212   
N29      N      0.414630000000     0.995000000000     0.330550000000    -0.193121   
N30      N      0.571250000000     0.994080000000     0.325850000000    -0.193036   
N31      N      0.237080000000     0.998880000000     0.334190000000    -0.192865   
N32      N      0.081800000000     0.000160000000     0.331430000000    -0.191089   
N33      N      0.325360000000     0.997670000000     0.088340000000    -0.193158   
N34      N      0.323760000000     0.998320000000     0.243690000000    -0.192897   
N35      N      0.330620000000     0.994270000000     0.577920000000    -0.193203   
N36      N      0.327850000000     0.995650000000     0.421260000000    -0.193251   
N37      N      0.331350000000     0.993320000000     0.910820000000    -0.192541   
N38      N      0.333750000000     0.992050000000     0.755500000000    -0.192899   
N39      N      0.243350000000     0.992970000000     0.667830000000    -0.192913   
N40      N      0.088000000000     0.993780000000     0.665100000000    -0.192388   
N41      N      0.664860000000     0.993980000000     0.569680000000    -0.19302    
N42      N      0.661660000000     0.994450000000     0.413060000000    -0.193046   
N43      N      0.577550000000     0.993870000000     0.660220000000    -0.193179   
N44      N      0.420930000000     0.993430000000     0.664770000000    -0.193193   
N45      N      0.755080000000     0.994280000000     0.657580000000    -0.193045   
N46      N      0.910440000000     0.993970000000     0.660550000000    -0.191939   
N47      N      0.667620000000     0.994310000000     0.747260000000    -0.192988   
N48      N      0.665370000000     0.994240000000     0.902610000000    -0.192509   
N49      N      0.330350000000     0.906780000000     0.000710000000    -0.192632   
N50      N      0.331810000000     0.751410000000     0.999030000000    -0.192756   
N51      N      0.086330000000     0.663270000000     0.001000000000    -0.192227   
N52      N      0.241710000000     0.663670000000     0.999400000000    -0.193245   
N53      N      0.419240000000     0.661630000000     0.997000000000    -0.193069   
N54      N      0.575820000000     0.662160000000     0.995560000000    -0.193052   
N55      N      0.664610000000     0.750810000000     0.994930000000    -0.192884   
N56      N      0.663490000000     0.906190000000     0.992770000000    -0.192575   
N57      N      0.753370000000     0.661870000000     0.995890000000    -0.19299    
N58      N      0.908770000000     0.662470000000     0.997980000000    -0.192953   
N59      N      0.326920000000     0.417230000000     0.997340000000    -0.193072   
N60      N      0.329110000000     0.573900000000     0.997580000000    -0.193193   
N61      N      0.236750000000     0.329740000000     0.998430000000    -0.19298    
N62      N      0.081380000000     0.330240000000     0.996210000000    -0.192953   
N63      N      0.326210000000     0.084320000000     0.998170000000    -0.193042   
N64      N      0.324370000000     0.239660000000     0.997920000000    -0.192892   
N65      N      0.663980000000     0.573270000000     0.995680000000    -0.193055   
N66      N      0.660140000000     0.416670000000     0.994010000000    -0.193095   
N67      N      0.571030000000     0.327760000000     0.994540000000    -0.19296    
N68      N      0.414350000000     0.327400000000     0.996630000000    -0.192932   
N69      N      0.903910000000     0.329600000000     0.988900000000    -0.192582   
N70      N      0.748610000000     0.328310000000     0.990140000000    -0.192875   
N71      N      0.661850000000     0.083770000000     0.990280000000    -0.192676   
N72      N      0.660200000000     0.239110000000     0.991060000000    -0.192927   
O1       O      0.614630000000     0.329020000000     0.969100000000    -0.398253   
O2       O      0.703710000000     0.327750000000     0.966790000000    -0.396865   
O3       O      0.658460000000     0.283720000000     0.967260000000    -0.397033   
O4       O      0.659350000000     0.372890000000     0.968740000000    -0.397273   
O5       O      0.660220000000     0.372030000000     0.017720000000    -0.39686    
O6       O      0.661350000000     0.282960000000     0.016150000000    -0.397256   
O7       O      0.705040000000     0.328270000000     0.015750000000    -0.397104   
O8       O      0.615880000000     0.326610000000     0.018020000000    -0.395524   
O9       O      0.370450000000     0.328740000000     0.021610000000    -0.396926   
O10      O      0.281250000000     0.328430000000     0.022570000000    -0.395607   
O11      O      0.326050000000     0.283980000000     0.022220000000    -0.396797   
O12      O      0.326260000000     0.373090000000     0.021950000000    -0.39688    
O13      O      0.326150000000     0.372940000000     0.972950000000    -0.397223   
O14      O      0.323750000000     0.283820000000     0.973290000000    -0.397422   
O15      O      0.280720000000     0.329780000000     0.973600000000    -0.398273   
O16      O      0.369790000000     0.326910000000     0.972650000000    -0.396884   
O17      O      0.709030000000     0.660460000000     0.020100000000    -0.397183   
O18      O      0.620050000000     0.663860000000     0.019910000000    -0.397214   
O19      O      0.662760000000     0.617550000000     0.020120000000    -0.395975   
O20      O      0.666200000000     0.706730000000     0.019730000000    -0.396028   
O21      O      0.663180000000     0.706410000000     0.970840000000    -0.398009   
O22      O      0.666140000000     0.617420000000     0.971250000000    -0.3979     
O23      O      0.620050000000     0.660410000000     0.971040000000    -0.396678   
O24      O      0.709240000000     0.663370000000     0.971200000000    -0.39679    
O25      O      0.285620000000     0.661900000000     0.974380000000    -0.397358   
O26      O      0.374720000000     0.663840000000     0.973180000000    -0.397482   
O27      O      0.331170000000     0.618270000000     0.973410000000    -0.396901   
O28      O      0.329270000000     0.707420000000     0.974210000000    -0.397235   
O29      O      0.333020000000     0.706940000000     0.023050000000    -0.396708   
O30      O      0.328510000000     0.617950000000     0.022320000000    -0.397009   
O31      O      0.375320000000     0.660220000000     0.022030000000    -0.396418   
O32      O      0.286280000000     0.664620000000     0.023280000000    -0.396652   
O33      O      0.621860000000     0.969560000000     0.660890000000    -0.397447   
O34      O      0.710870000000     0.969750000000     0.656300000000    -0.397134   
O35      O      0.668630000000     0.969760000000     0.703060000000    -0.397097   
O36      O      0.664050000000     0.969580000000     0.613980000000    -0.396873   
O37      O      0.667130000000     0.018460000000     0.613860000000    -0.396562   
O38      O      0.665420000000     0.018630000000     0.702970000000    -0.396455   
O39      O      0.710800000000     0.018640000000     0.659290000000    -0.396479   
O40      O      0.621670000000     0.018420000000     0.657530000000    -0.39632    
O41      O      0.376650000000     0.017790000000     0.665970000000    -0.396414   
O42      O      0.287550000000     0.017500000000     0.668670000000    -0.396498   
O43      O      0.333660000000     0.017050000000     0.711590000000    -0.397085   
O44      O      0.330450000000     0.018210000000     0.622510000000    -0.395738   
O45      O      0.332260000000     0.969270000000     0.621770000000    -0.398067   
O46      O      0.332320000000     0.968090000000     0.710920000000    -0.396591   
O47      O      0.287650000000     0.968580000000     0.666280000000    -0.397072   
O48      O      0.376800000000     0.968800000000     0.665750000000    -0.397305   
O49      O      0.280740000000     0.973500000000     0.332890000000    -0.398098   
O50      O      0.369840000000     0.971430000000     0.330730000000    -0.396446   
O51      O      0.325980000000     0.971800000000     0.376660000000    -0.396612   
O52      O      0.323960000000     0.973190000000     0.287530000000    -0.397864   
O53      O      0.325690000000     0.022140000000     0.288320000000    -0.395737   
O54      O      0.327770000000     0.020740000000     0.377430000000    -0.397353   
O55      O      0.371000000000     0.020380000000     0.332210000000    -0.397261   
O56      O      0.281890000000     0.022450000000     0.334140000000    -0.395562   
O57      O      0.704280000000     0.019950000000     0.325140000000    -0.396518   
O58      O      0.615210000000     0.018880000000     0.323630000000    -0.396851   
O59      O      0.658970000000     0.019110000000     0.368990000000    -0.396313   
O60      O      0.660440000000     0.019690000000     0.279870000000    -0.396774   
O61      O      0.657940000000     0.970780000000     0.279610000000    -0.396847   
O62      O      0.662710000000     0.970270000000     0.368660000000    -0.396842   
O63      O      0.615750000000     0.969990000000     0.326550000000    -0.396214   
O64      O      0.704870000000     0.971090000000     0.321780000000    -0.396311   
O65      O      0.974680000000     0.658810000000     0.711660000000    -0.397594   
O66      O      0.973650000000     0.663410000000     0.622700000000    -0.397628   
O67      O      0.974160000000     0.616520000000     0.664820000000    -0.396626   
O68      O      0.974300000000     0.705620000000     0.669470000000    -0.39651    
O69      O      0.023150000000     0.705510000000     0.665820000000    -0.396318   
O70      O      0.023070000000     0.616440000000     0.667520000000    -0.396169   
O71      O      0.022520000000     0.660100000000     0.622050000000    -0.395657   
O72      O      0.023560000000     0.661830000000     0.711230000000    -0.395825   
O73      O      0.973870000000     0.282450000000     0.657550000000    -0.396632   
O74      O      0.974270000000     0.371530000000     0.661290000000    -0.397632   
O75      O      0.974070000000     0.328990000000     0.614850000000    -0.397446   
O76      O      0.974040000000     0.325580000000     0.703870000000    -0.397751   
O77      O      0.023010000000     0.326490000000     0.703930000000    -0.395147   
O78      O      0.022990000000     0.326470000000     0.614680000000    -0.395412   
O79      O      0.023210000000     0.371310000000     0.659130000000    -0.395229   
O80      O      0.022810000000     0.282160000000     0.659380000000    -0.396527   
O81      O      0.019500000000     0.667080000000     0.377220000000    -0.39688    
O82      O      0.019160000000     0.664910000000     0.288210000000    -0.396891   
O83      O      0.019540000000     0.710580000000     0.331690000000    -0.395592   
O84      O      0.018960000000     0.621390000000     0.333790000000    -0.395374   
O85      O      0.970070000000     0.621800000000     0.330740000000    -0.39727    
O86      O      0.970670000000     0.710790000000     0.334940000000    -0.397232   
O87      O      0.970300000000     0.668300000000     0.288290000000    -0.396394   
O88      O      0.970610000000     0.664190000000     0.377450000000    -0.396341   
O89      O      0.970330000000     0.330430000000     0.370400000000    -0.397976   
O90      O      0.967420000000     0.332730000000     0.281340000000    -0.396556   
O91      O      0.969000000000     0.287330000000     0.325000000000    -0.397965   
O92      O      0.968780000000     0.376440000000     0.327330000000    -0.396414   
O93      O      0.017700000000     0.376670000000     0.324650000000    -0.396635   
O94      O      0.017960000000     0.287520000000     0.323350000000    -0.395119   
O95      O      0.016380000000     0.332990000000     0.279730000000    -0.39652    
O96      O      0.019280000000     0.331750000000     0.368860000000    -0.395002   
O97      O      0.948030000000     0.354230000000     0.991030000000    -0.397402   
O98      O      0.037170000000     0.354490000000     0.992420000000    -0.396421   
O99      O      0.993310000000     0.353390000000     0.947160000000    -0.397781   
O100     O      0.991920000000     0.355340000000     0.036270000000    -0.396946   
O101     O      0.989600000000     0.306430000000     0.037250000000    -0.396575   
O102     O      0.995820000000     0.304500000000     0.948290000000    -0.39754    
O103     O      0.037190000000     0.305640000000     0.995960000000    -0.396318   
O104     O      0.948250000000     0.305270000000     0.989690000000    -0.3974     
O105     O      0.952930000000     0.687120000000     0.997110000000    -0.397012   
O106     O      0.041980000000     0.687560000000     0.001610000000    -0.39563    
O107     O      0.999710000000     0.686580000000     0.954890000000    -0.39806    
O108     O      0.995170000000     0.688110000000     0.043910000000    -0.396959   
O109     O      0.998190000000     0.639240000000     0.044800000000    -0.398313   
O110     O      0.997080000000     0.637680000000     0.955680000000    -0.398674   
O111     O      0.042200000000     0.638630000000     0.999630000000    -0.398202   
O112     O      0.953080000000     0.638280000000     0.000780000000    -0.396756   
O113     O      0.038450000000     0.998620000000     0.305520000000    -0.396518   
O114     O      0.949350000000     0.997440000000     0.302410000000    -0.396741   
O115     O      0.993710000000     0.042820000000     0.302470000000    -0.396351   
O116     O      0.994710000000     0.953730000000     0.305460000000    -0.398309   
O117     O      0.992330000000     0.955360000000     0.354360000000    -0.398193   
O118     O      0.991580000000     0.044450000000     0.351380000000    -0.398524   
O119     O      0.947610000000     0.999710000000     0.351310000000    -0.399351   
O120     O      0.036710000000     0.000620000000     0.354440000000    -0.394253   
O121     O      0.955280000000     0.992250000000     0.637250000000    -0.39756    
O122     O      0.044380000000     0.993520000000     0.639500000000    -0.396372   
O123     O      0.000620000000     0.948600000000     0.639890000000    -0.395375   
O124     O      0.999040000000     0.037700000000     0.636870000000    -0.395624   
O125     O      0.999260000000     0.039330000000     0.685830000000    -0.397685   
O126     O      0.997800000000     0.950250000000     0.688760000000    -0.396634   
O127     O      0.043140000000     0.994480000000     0.688460000000    -0.396443   
O128     O      0.954030000000     0.995600000000     0.686110000000    -0.397907   
O129     O      0.637780000000     0.039300000000     0.990420000000    -0.396883   
O130     O      0.638680000000     0.950180000000     0.990320000000    -0.397737   
O131     O      0.636860000000     0.994470000000     0.035170000000    -0.396545   
O132     O      0.639600000000     0.995020000000     0.946070000000    -0.398477   
O133     O      0.688550000000     0.993900000000     0.947610000000    -0.397009   
O134     O      0.685770000000     0.996550000000     0.036670000000    -0.398069   
O135     O      0.687550000000     0.950670000000     0.993620000000    -0.397785   
O136     O      0.686750000000     0.039770000000     0.991210000000    -0.39681    
O137     O      0.302780000000     0.039470000000     0.997590000000    -0.396291   
O138     O      0.304920000000     0.950400000000     0.999340000000    -0.399467   
O139     O      0.302320000000     0.995610000000     0.043300000000    -0.396113   
O140     O      0.305400000000     0.993760000000     0.954190000000    -0.398246   
O141     O      0.354320000000     0.995440000000     0.955880000000    -0.398203   
O142     O      0.351250000000     0.997360000000     0.044950000000    -0.398702   
O143     O      0.353830000000     0.951600000000     0.001570000000    -0.397283   
O144     O      0.351700000000     0.040720000000     0.999760000000    -0.398226   


