data_structure

_audit_creation_method RASPA-1.0
_audit_creation_date 2023-6-5
_audit_author_name 'Poobodin Mano'

_cell_length_a    49.7459
_cell_length_b    49.7647
_cell_length_c    29.7916
_cell_angle_alpha 89.9835
_cell_angle_beta  90.0164
_cell_angle_gamma 119.962
_cell_volume      63895.4

_symmetry_cell_setting          triclinic
_symmetry_space_group_name_Hall 'P 1'
_symmetry_space_group_name_H-M  'P 1'
_symmetry_Int_Tables_number     1

_symmetry_equiv_pos_as_xyz 'x,y,z'

loop_
_atom_site_label
_atom_site_type_symbol
_atom_site_fract_x
_atom_site_fract_y
_atom_site_fract_z
_atom_site_charge
C1       C      0.889340000000     0.689730000000     0.663080000000     0.416131   
C2       C      0.770440000000     0.637580000000     0.613850000000     0.416259   
C3       C      0.814920000000     0.662470000000     0.724850000000     0.406328   
C4       C      0.844820000000     0.664950000000     0.552300000000     0.406674   
C5       C      0.103330000000     0.797720000000     0.780990000000     0.406639   
C6       C      0.222460000000     0.862690000000     0.829280000000     0.416952   
C7       C      0.177900000000     0.842990000000     0.718470000000     0.416477   
C8       C      0.148010000000     0.817550000000     0.891630000000     0.417529   
C9       C      0.555050000000     0.024560000000     0.998820000000     0.417923   
C10      C      0.436420000000     0.968310000000     0.947650000000     0.406852   
C11      C      0.479470000000     0.993150000000     0.059320000000     0.405729   
C12      C      0.511840000000     0.999330000000     0.887140000000     0.416673   
C13      C      0.222610000000     0.364540000000     0.329910000000     0.417977   
C14      C      0.103640000000     0.305400000000     0.280030000000     0.405774   
C15      C      0.147590000000     0.332430000000     0.391100000000     0.416701   
C16      C      0.178800000000     0.337420000000     0.218610000000     0.405977   
C17      C      0.770230000000     0.134150000000     0.113700000000     0.405863   
C18      C      0.889440000000     0.195490000000     0.162350000000     0.416671   
C19      C      0.845040000000     0.177330000000     0.051630000000     0.407001   
C20      C      0.814270000000     0.152450000000     0.224460000000     0.414529   
C21      C      0.557230000000     0.532400000000     0.492770000000     0.406667   
C22      C      0.438390000000     0.471090000000     0.442770000000     0.405622   
C23      C      0.482310000000     0.488440000000     0.553930000000     0.40634    
C24      C      0.513400000000     0.514920000000     0.381510000000     0.415691   
C25      C      0.134820000000     0.362840000000     0.829310000000     0.415493   
C26      C      0.197140000000     0.306140000000     0.779970000000     0.4059     
C27      C      0.179280000000     0.332410000000     0.891100000000     0.415439   
C28      C      0.152710000000     0.336730000000     0.718550000000     0.405671   
C29      C      0.300690000000     0.197120000000     0.657300000000     0.413837   
C30      C      0.355840000000     0.132420000000     0.612500000000     0.406957   
C31      C      0.327080000000     0.150230000000     0.721510000000     0.415603   
C32      C      0.329370000000     0.179480000000     0.548530000000     0.415369   
C33      C      0.028950000000     0.470950000000     0.948470000000     0.407381   
C34      C      0.972260000000     0.533050000000     0.998990000000     0.415623   
C35      C      0.997110000000     0.514350000000     0.887470000000     0.414304   
C36      C      0.003940000000     0.489370000000     0.059980000000     0.407333   
C37      C      0.637620000000     0.865740000000     0.331990000000     0.41383    
C38      C      0.692560000000     0.802040000000     0.280490000000     0.418847   
C39      C      0.668010000000     0.820670000000     0.392260000000     0.416278   
C40      C      0.661870000000     0.846790000000     0.220000000000     0.405784   
C41      C      0.800550000000     0.695120000000     0.164250000000     0.407329   
C42      C      0.862270000000     0.638220000000     0.113160000000     0.405614   
C43      C      0.843880000000     0.662750000000     0.224840000000     0.415161   
C44      C      0.819070000000     0.670480000000     0.052350000000     0.416068   
C45      C      0.527900000000     0.970490000000     0.448820000000     0.40555    
C46      C      0.462590000000     0.024330000000     0.497360000000     0.416284   
C47      C      0.482400000000     0.999660000000     0.386520000000     0.416463   
C48      C      0.508350000000     0.995560000000     0.559440000000     0.406943   
C49      C      0.298180000000     0.106980000000     0.161350000000     0.417775   
C50      C      0.357460000000     0.225520000000     0.109410000000     0.41465    
C51      C      0.333370000000     0.182820000000     0.221160000000     0.406429   
C52      C      0.322410000000     0.149480000000     0.048980000000     0.406224   
C53      C      0.466500000000     0.439900000000     0.991960000000     0.405586   
C54      C      0.527480000000     0.559240000000     0.944150000000     0.417609   
C55      C      0.509860000000     0.514680000000     0.054280000000     0.407141   
C56      C      0.483830000000     0.484430000000     0.881520000000     0.415106   
C57      C      0.194790000000     0.892630000000     0.279110000000     0.406242   
C58      C      0.136820000000     0.774160000000     0.330790000000     0.406083   
C59      C      0.153380000000     0.816830000000     0.218930000000     0.405972   
C60      C      0.178150000000     0.849720000000     0.391040000000     0.405977   
C61      C      0.033390000000     0.560420000000     0.449770000000     0.416286   
C62      C      0.973890000000     0.441280000000     0.498530000000     0.406162   
C63      C      0.001730000000     0.485710000000     0.387720000000     0.415716   
C64      C      0.005750000000     0.516150000000     0.560370000000     0.407282   
C65      C      0.861010000000     0.225810000000     0.611760000000     0.417572   
C66      C      0.798550000000     0.107370000000     0.663900000000     0.416703   
C67      C      0.817240000000     0.150420000000     0.551850000000     0.407329   
C68      C      0.842650000000     0.182750000000     0.724100000000     0.41573    
C69      C      0.636410000000     0.774180000000     0.829810000000     0.405617   
C70      C      0.693000000000     0.893450000000     0.782190000000     0.406864   
C71      C      0.665670000000     0.848610000000     0.892530000000     0.41541    
C72      C      0.663760000000     0.819170000000     0.719780000000     0.405849   
C73      C      0.753520000000     0.064720000000     0.698130000000     0.241509   
C74      C      0.796740000000     0.059450000000     0.677420000000     0.0807435  
C75      C      0.738730000000     0.034720000000     0.716100000000    -0.156622   
C76      C      0.704670000000     0.965780000000     0.732190000000    -0.0786793  
C77      C      0.782130000000     0.029190000000     0.694070000000    -0.103982   
C78      C      0.737100000000     0.984370000000     0.733100000000     0.0234873  
C79      C      0.752850000000     0.016450000000     0.714220000000     0.0662279  
C80      C      0.690300000000     0.935800000000     0.749860000000     0.0698259  
C81      C      0.739180000000     0.941580000000     0.768780000000     0.0692895  
C82      C      0.754270000000     0.971900000000     0.752250000000    -0.0791675  
C83      C      0.860900000000     0.269500000000     0.577600000000     0.242157   
C84      C      0.908410000000     0.272410000000     0.597910000000     0.0809999  
C85      C      0.877090000000     0.299560000000     0.560120000000    -0.15757    
C86      C      0.912350000000     0.367900000000     0.544090000000    -0.0789158  
C87      C      0.925080000000     0.302990000000     0.582440000000    -0.103191   
C88      C      0.926750000000     0.349790000000     0.545820000000     0.023349   
C89      C      0.909540000000     0.317100000000     0.562950000000     0.0663861  
C90      C      0.928180000000     0.397990000000     0.527020000000     0.0696746  
C91      C      0.973200000000     0.394080000000     0.515560000000     0.069305   
C92      C      0.957630000000     0.363390000000     0.530900000000    -0.0782733  
C93      C      0.080240000000     0.609340000000     0.437490000000     0.24057    
C94      C      0.031290000000     0.602350000000     0.415480000000     0.0806826  
C95      C      0.094900000000     0.639760000000     0.420890000000    -0.157      
C96      C      0.122900000000     0.697030000000     0.362570000000    -0.0791301  
C97      C      0.045390000000     0.632240000000     0.397650000000    -0.10425    
C98      C      0.093040000000     0.683570000000     0.381190000000     0.0230238  
C99      C      0.077620000000     0.651500000000     0.400130000000     0.0659196  
C100     C      0.137150000000     0.727270000000     0.345720000000     0.0688379  
C101     C      0.092720000000     0.731000000000     0.363470000000     0.0689529  
C102     C      0.078040000000     0.701100000000     0.381430000000    -0.0794776  
C103     C      0.529900000000     0.608390000000     0.932840000000     0.242645   
C104     C      0.572010000000     0.601530000000     0.911240000000     0.0812483  
C105     C      0.545770000000     0.638920000000     0.916830000000    -0.157424   
C106     C      0.574510000000     0.695870000000     0.858630000000    -0.0792903  
C107     C      0.587980000000     0.631630000000     0.894000000000    -0.103928   
C108     C      0.591280000000     0.682890000000     0.877510000000     0.0228871  
C109     C      0.574880000000     0.650800000000     0.896370000000     0.0664949  
C110     C      0.589980000000     0.726260000000     0.842540000000     0.068651   
C111     C      0.638540000000     0.731170000000     0.861090000000     0.0684088  
C112     C      0.623760000000     0.700990000000     0.878280000000    -0.0791906  
C113     C      0.253550000000     0.063620000000     0.194760000000     0.241796   
C114     C      0.297950000000     0.059970000000     0.175870000000     0.0813469  
C115     C      0.239300000000     0.033650000000     0.212750000000    -0.157075   
C116     C      0.206100000000     0.965330000000     0.231250000000    -0.0789948  
C117     C      0.283720000000     0.029540000000     0.191920000000    -0.10332    
C118     C      0.238600000000     0.983540000000     0.229580000000     0.0235132  
C119     C      0.254070000000     0.015910000000     0.211220000000     0.0659808  
C120     C      0.191970000000     0.935420000000     0.249100000000     0.0693049  
C121     C      0.241020000000     0.939900000000     0.261880000000     0.0691526  
C122     C      0.255980000000     0.970360000000     0.245730000000    -0.0790324  
C123     C      0.359050000000     0.273990000000     0.096390000000     0.241267   
C124     C      0.401710000000     0.267710000000     0.076130000000     0.0806781  
C125     C      0.374490000000     0.304310000000     0.079480000000    -0.156606   
C126     C      0.403670000000     0.362890000000     0.024710000000    -0.0791619  
C127     C      0.417190000000     0.297490000000     0.057770000000    -0.103748   
C128     C      0.420220000000     0.348670000000     0.040300000000     0.0229381  
C129     C      0.403760000000     0.316460000000     0.059260000000     0.0653042  
C130     C      0.419460000000     0.393380000000     0.008790000000     0.0687669  
C131     C      0.467720000000     0.395790000000     0.020160000000     0.0684198  
C132     C      0.452750000000     0.365780000000     0.037780000000    -0.0798569  
C133     C      0.643660000000     0.790820000000     0.458970000000     0.242181   
C134     C      0.693970000000     0.835310000000     0.462600000000     0.0809544  
C135     C      0.643420000000     0.787740000000     0.505680000000    -0.15783    
C136     C      0.639590000000     0.805030000000     0.602080000000    -0.0799057  
C137     C      0.694260000000     0.832740000000     0.509250000000    -0.104334   
C138     C      0.666450000000     0.808840000000     0.581120000000     0.0227726  
C139     C      0.668420000000     0.809290000000     0.531400000000     0.0668956  
C140     C      0.638820000000     0.807670000000     0.648590000000     0.0690974  
C141     C      0.690010000000     0.816140000000     0.654590000000     0.0683553  
C142     C      0.691710000000     0.814020000000     0.607960000000    -0.0795981  
C143     C      0.639750000000     0.852500000000     0.958680000000     0.241529   
C144     C      0.690760000000     0.860120000000     0.963450000000     0.0811986  
C145     C      0.638990000000     0.855220000000     0.005410000000    -0.157462   
C146     C      0.636110000000     0.835350000000     0.102900000000    -0.0794841  
C147     C      0.690610000000     0.863010000000     0.009990000000    -0.104514   
C148     C      0.662350000000     0.858820000000     0.081340000000     0.0228391  
C149     C      0.664250000000     0.859790000000     0.031610000000     0.0667559  
C150     C      0.635950000000     0.832280000000     0.149480000000     0.0689387  
C151     C      0.686390000000     0.876270000000     0.154270000000     0.0686872  
C152     C      0.687450000000     0.879790000000     0.107640000000    -0.0796253  
C153     C      0.692320000000     0.754300000000     0.265600000000     0.242256   
C154     C      0.736390000000     0.802850000000     0.248020000000     0.0821375  
C155     C      0.707580000000     0.738940000000     0.249660000000    -0.155732   
C156     C      0.737430000000     0.709140000000     0.196560000000    -0.0782022  
C157     C      0.751560000000     0.788120000000     0.230180000000    -0.103589   
C158     C      0.753910000000     0.739640000000     0.213100000000     0.0240319  
C159     C      0.737460000000     0.755690000000     0.231110000000     0.0664865  
C160     C      0.753330000000     0.694480000000     0.180700000000     0.0701225  
C161     C      0.801550000000     0.739790000000     0.194530000000     0.070876   
C162     C      0.786470000000     0.754720000000     0.212140000000    -0.0784652  
C163     C      0.640060000000     0.910650000000     0.366870000000     0.240462   
C164     C      0.591710000000     0.868120000000     0.344230000000     0.0801182  
C165     C      0.624890000000     0.925800000000     0.383910000000    -0.156717   
C166     C      0.546240000000     0.910070000000     0.418560000000    -0.0800144  
C167     C      0.576100000000     0.882900000000     0.360410000000    -0.103993   
C168     C      0.576030000000     0.927540000000     0.400100000000     0.0227597  
C169     C      0.592550000000     0.911970000000     0.381140000000     0.0654162  
C170     C      0.530650000000     0.924810000000     0.434970000000     0.0685317  
C171     C      0.573670000000     0.974010000000     0.417520000000     0.0682135  
C172     C      0.589720000000     0.959970000000     0.399990000000    -0.079288   
C173     C      0.971200000000     0.500710000000     0.815800000000     0.240969   
C174     C      0.022740000000     0.542930000000     0.822000000000     0.0804021  
C175     C      0.972680000000     0.503890000000     0.769050000000    -0.157477   
C176     C      0.029020000000     0.528690000000     0.678620000000    -0.0796285  
C177     C      0.024900000000     0.546420000000     0.775420000000    -0.104625   
C178     C      0.002910000000     0.527230000000     0.698770000000     0.0239611  
C179     C      0.999950000000     0.526320000000     0.748360000000     0.0656799  
C180     C      0.030010000000     0.525890000000     0.632110000000     0.0701217  
C181     C      0.980770000000     0.522090000000     0.624750000000     0.0690364  
C182     C      0.978860000000     0.524470000000     0.671230000000    -0.080575   
C183     C      0.027120000000     0.482100000000     0.320780000000     0.24085    
C184     C      0.976240000000     0.474930000000     0.317150000000     0.0807326  
C185     C      0.027670000000     0.479910000000     0.273940000000    -0.15781    
C186     C      0.030280000000     0.500530000000     0.176850000000    -0.0792181  
C187     C      0.976190000000     0.472590000000     0.270500000000    -0.104852   
C188     C      0.004010000000     0.477160000000     0.198540000000     0.0234087  
C189     C      0.002390000000     0.475860000000     0.248280000000     0.0669072  
C190     C      0.030240000000     0.503720000000     0.130290000000     0.0702362  
C191     C      0.979510000000     0.460150000000     0.125870000000     0.0691842  
C192     C      0.978650000000     0.456490000000     0.172430000000    -0.0800985  
C193     C      0.974020000000     0.578000000000     0.032520000000     0.240783   
C194     C      0.925900000000     0.534670000000     0.011000000000     0.0803284  
C195     C      0.958490000000     0.592720000000     0.049660000000    -0.157163   
C196     C      0.923220000000     0.626590000000     0.064040000000    -0.0791584  
C197     C      0.909940000000     0.549210000000     0.026770000000    -0.10409    
C198     C      0.909430000000     0.594170000000     0.064880000000     0.022726   
C199     C      0.926120000000     0.578510000000     0.046890000000     0.0659402  
C200     C      0.907410000000     0.640910000000     0.081210000000     0.0682666  
C201     C      0.864110000000     0.592010000000     0.099180000000     0.0681775  
C202     C      0.879540000000     0.576950000000     0.083170000000    -0.0795497  
C203     C      0.299020000000     0.121600000000     0.787330000000     0.241796   
C204     C      0.351170000000     0.162700000000     0.793050000000     0.0815238  
C205     C      0.297420000000     0.118260000000     0.834150000000    -0.15765    
C206     C      0.345280000000     0.138920000000     0.936520000000    -0.0800874  
C207     C      0.350230000000     0.159720000000     0.839600000000    -0.105106   
C208     C      0.320900000000     0.136780000000     0.910440000000     0.0228491  
C209     C      0.322970000000     0.137780000000     0.860760000000     0.0668932  
C210     C      0.344750000000     0.141810000000     0.983040000000     0.0686167  
C211     C      0.295990000000     0.139380000000     0.978820000000     0.0691329  
C212     C      0.295650000000     0.136170000000     0.932190000000    -0.0791865  
C213     C      0.356750000000     0.209210000000     0.483050000000     0.240324   
C214     C      0.305110000000     0.167130000000     0.477080000000     0.0807498  
C215     C      0.358310000000     0.212730000000     0.436260000000    -0.157747   
C216     C      0.360330000000     0.195760000000     0.337800000000    -0.0796186  
C217     C      0.305890000000     0.170490000000     0.430600000000    -0.104963   
C218     C      0.334880000000     0.194470000000     0.359900000000     0.0230035  
C219     C      0.332900000000     0.193010000000     0.409570000000     0.0663135  
C220     C      0.359980000000     0.192940000000     0.291120000000     0.0692299  
C221     C      0.310810000000     0.189660000000     0.287530000000     0.069899   
C222     C      0.310270000000     0.192120000000     0.334140000000    -0.0801651  
C223     C      0.416660000000     0.021290000000     0.529650000000     0.241268   
C224     C      0.459960000000     0.070010000000     0.510340000000     0.0815318  
C225     C      0.401410000000     0.036220000000     0.547210000000    -0.156555   
C226     C      0.367230000000     0.071340000000     0.563200000000    -0.0784181  
C227     C      0.444980000000     0.085390000000     0.526610000000    -0.10369    
C228     C      0.399620000000     0.084850000000     0.564970000000     0.0236724  
C229     C      0.415490000000     0.068620000000     0.546030000000     0.0663956  
C230     C      0.352900000000     0.087160000000     0.580450000000     0.0700526  
C231     C      0.401740000000     0.129610000000     0.600960000000     0.0703251  
C232     C      0.416760000000     0.114200000000     0.584850000000    -0.0790063  
C233     C      0.087410000000     0.363270000000     0.843470000000     0.241768   
C234     C      0.136130000000     0.406850000000     0.861880000000     0.0820785  
C235     C      0.072190000000     0.378420000000     0.860390000000    -0.155925   
C236     C      0.042730000000     0.407920000000     0.914940000000    -0.0785501  
C237     C      0.121560000000     0.422020000000     0.880280000000    -0.103091   
C238     C      0.073230000000     0.424440000000     0.898370000000     0.0238855  
C239     C      0.089120000000     0.408060000000     0.879580000000     0.0659069  
C240     C      0.028160000000     0.423770000000     0.931330000000     0.0700668  
C241     C      0.073610000000     0.471990000000     0.918080000000     0.0698897  
C242     C      0.088440000000     0.456980000000     0.899950000000    -0.0797174  
C243     C      0.254830000000     0.201180000000     0.667550000000     0.240593   
C244     C      0.303960000000     0.241730000000     0.691660000000     0.0797356  
C245     C      0.240520000000     0.216890000000     0.685430000000    -0.157601   
C246     C      0.213020000000     0.244420000000     0.747510000000    -0.0797176  
C247     C      0.290210000000     0.257720000000     0.710220000000    -0.104141   
C248     C      0.242670000000     0.261380000000     0.728430000000     0.02291    
C249     C      0.258030000000     0.245200000000     0.707790000000     0.0657103  
C250     C      0.198350000000     0.259760000000     0.765100000000     0.0689954  
C251     C      0.242070000000     0.308470000000     0.747590000000     0.0685394  
C252     C      0.257250000000     0.293860000000     0.729050000000    -0.0797264  
C253     C      0.453770000000     0.479320000000     0.815200000000     0.240401   
C254     C      0.498740000000     0.474310000000     0.810590000000     0.0799485  
C255     C      0.450980000000     0.477580000000     0.768380000000    -0.158384   
C256     C      0.476700000000     0.455610000000     0.665930000000    -0.080669   
C257     C      0.496200000000     0.472050000000     0.763940000000    -0.10505    
C258     C      0.471880000000     0.475960000000     0.692590000000     0.0226821  
C259     C      0.472620000000     0.474530000000     0.742260000000     0.0660946  
C260     C      0.478790000000     0.459280000000     0.619340000000     0.0684857  
C261     C      0.470800000000     0.502310000000     0.624890000000     0.069114   
C262     C      0.468200000000     0.499060000000     0.671480000000    -0.0798728  
C263     C      0.518250000000     0.544670000000     0.314900000000     0.241726   
C264     C      0.524340000000     0.500310000000     0.310980000000     0.0811773  
C265     C      0.520770000000     0.547670000000     0.268130000000    -0.158057   
C266     C      0.499120000000     0.529100000000     0.171580000000    -0.0794606  
C267     C      0.527070000000     0.502910000000     0.264380000000    -0.104966   
C268     C      0.522910000000     0.526630000000     0.192700000000     0.0229398  
C269     C      0.524430000000     0.526250000000     0.242370000000     0.0669857  
C270     C      0.495610000000     0.525880000000     0.125100000000     0.0700481  
C271     C      0.539760000000     0.519680000000     0.119570000000     0.0689032  
C272     C      0.543660000000     0.522340000000     0.166140000000    -0.079878   
C273     C      0.829500000000     0.195780000000     0.795610000000     0.242523   
C274     C      0.870660000000     0.184800000000     0.789810000000     0.0815594  
C275     C      0.832600000000     0.197450000000     0.842400000000    -0.156961   
C276     C      0.853090000000     0.211650000000     0.940150000000    -0.0794605  
C277     C      0.874100000000     0.186140000000     0.836380000000    -0.104678   
C278     C      0.855440000000     0.190000000000     0.912940000000     0.0236985  
C279     C      0.854490000000     0.191820000000     0.863290000000     0.0673075  
C280     C      0.850920000000     0.207750000000     0.986690000000     0.0696912  
C281     C      0.854190000000     0.161990000000     0.980120000000     0.0703417  
C282     C      0.856720000000     0.165360000000     0.933520000000    -0.0787452  
C283     C      0.800780000000     0.165480000000     0.295680000000     0.241399   
C284     C      0.811690000000     0.124250000000     0.290250000000     0.0803531  
C285     C      0.798540000000     0.162140000000     0.342400000000    -0.157796   
C286     C      0.783390000000     0.141790000000     0.439880000000    -0.0790586  
C287     C      0.809740000000     0.120560000000     0.336800000000    -0.10502    
C288     C      0.805030000000     0.138980000000     0.413220000000     0.0232968  
C289     C      0.803770000000     0.140070000000     0.363510000000     0.0668521  
C290     C      0.787070000000     0.144260000000     0.486460000000     0.0703662  
C291     C      0.832440000000     0.140160000000     0.481010000000     0.0694511  
C292     C      0.829300000000     0.137370000000     0.434410000000    -0.0792337  
C293     C      0.141900000000     0.356870000000     0.457590000000     0.242238   
C294     C      0.138050000000     0.307410000000     0.461920000000     0.0813113  
C295     C      0.140270000000     0.357800000000     0.504460000000    -0.157205   
C296     C      0.119380000000     0.309930000000     0.606680000000    -0.0805007  
C297     C      0.135850000000     0.307540000000     0.508570000000    -0.104674   
C298     C      0.139410000000     0.335310000000     0.580100000000     0.0230298  
C299     C      0.137820000000     0.333290000000     0.530430000000     0.0666808  
C300     C      0.123350000000     0.311260000000     0.653210000000     0.0683716  
C301     C      0.166050000000     0.362450000000     0.647780000000     0.0690987  
C302     C      0.162470000000     0.362040000000     0.601260000000    -0.0797081  
C303     C      0.209190000000     0.357360000000     0.957540000000     0.240945   
C304     C      0.164180000000     0.307480000000     0.962030000000     0.0813131  
C305     C      0.211750000000     0.358440000000     0.004420000000    -0.157639   
C306     C      0.193550000000     0.362480000000     0.101160000000    -0.0796691  
C307     C      0.166530000000     0.307770000000     0.008700000000    -0.10427    
C308     C      0.190450000000     0.335920000000     0.080130000000     0.0232443  
C309     C      0.190000000000     0.333800000000     0.030470000000     0.066682   
C310     C      0.190480000000     0.362940000000     0.147700000000     0.0691742  
C311     C      0.183210000000     0.312200000000     0.153350000000     0.0689567  
C312     C      0.185750000000     0.310810000000     0.106820000000    -0.0802175  
C313     C      0.938530000000     0.197910000000     0.174640000000     0.241558   
C314     C      0.931410000000     0.239890000000     0.195990000000     0.0813243  
C315     C      0.968930000000     0.213740000000     0.191230000000    -0.156973   
C316     C      0.025860000000     0.242780000000     0.249910000000    -0.0792158  
C317     C      0.961360000000     0.255800000000     0.213800000000    -0.103194   
C318     C      0.012650000000     0.259320000000     0.230900000000     0.0236087  
C319     C      0.980620000000     0.242780000000     0.211780000000     0.0659353  
C320     C      0.056190000000     0.258530000000     0.266420000000     0.0687642  
C321     C      0.060530000000     0.306820000000     0.247820000000     0.0691652  
C322     C      0.030480000000     0.291800000000     0.230230000000    -0.0790584  
C323     C      0.266090000000     0.409300000000     0.362660000000     0.241961   
C324     C      0.269850000000     0.364970000000     0.343800000000     0.0810437  
C325     C      0.296250000000     0.423810000000     0.379940000000    -0.156941   
C326     C      0.364660000000     0.457870000000     0.396320000000    -0.079156   
C327     C      0.300520000000     0.379510000000     0.359060000000    -0.103317   
C328     C      0.346950000000     0.425350000000     0.395040000000     0.0230756  
C329     C      0.314230000000     0.409320000000     0.377840000000     0.0660082  
C330     C      0.394750000000     0.472610000000     0.413510000000     0.0689033  
C331     C      0.391630000000     0.424140000000     0.425940000000     0.0684014  
C332     C      0.360950000000     0.408560000000     0.410530000000    -0.0788956  
C333     C      0.517470000000     0.975080000000     0.820430000000     0.242775   
C334     C      0.522570000000     0.025100000000     0.816710000000     0.0815027  
C335     C      0.519390000000     0.974440000000     0.773590000000    -0.157777   
C336     C      0.541090000000     0.022750000000     0.671580000000    -0.0801941  
C337     C      0.524960000000     0.025200000000     0.770030000000    -0.104296   
C338     C      0.520940000000     0.997410000000     0.698150000000     0.0237617  
C339     C      0.522470000000     0.999310000000     0.747870000000     0.0673229  
C340     C      0.537350000000     0.021300000000     0.624970000000     0.0694262  
C341     C      0.494620000000     0.970140000000     0.630370000000     0.0706325  
C342     C      0.497930000000     0.970670000000     0.676930000000    -0.0793498  
C343     C      0.495120000000     0.025470000000     0.314690000000     0.24148    
C344     C      0.453890000000     0.973450000000     0.321200000000     0.080344   
C345     C      0.491100000000     0.024160000000     0.268110000000    -0.15843    
C346     C      0.470290000000     0.018430000000     0.170920000000    -0.080236   
C347     C      0.449790000000     0.971390000000     0.274690000000    -0.105008   
C348     C      0.467550000000     0.994110000000     0.197820000000     0.0224821  
C349     C      0.468920000000     0.996730000000     0.247510000000     0.0664862  
C350     C      0.472910000000     0.017160000000     0.124380000000     0.0681678  
C351     C      0.469000000000     0.967820000000     0.130290000000     0.068392   
C352     C      0.466080000000     0.968240000000     0.176850000000    -0.0801194  
C353     C      0.602940000000     0.025030000000     0.013470000000     0.24174    
C354     C      0.597760000000     0.068700000000     0.031180000000     0.0817689  
C355     C      0.633570000000     0.040620000000     0.029320000000    -0.156222   
C356     C      0.693080000000     0.070840000000     0.082420000000    -0.0784263  
C357     C      0.627680000000     0.084190000000     0.048930000000    -0.103899   
C358     C      0.678820000000     0.087140000000     0.066000000000     0.023492   
C359     C      0.646340000000     0.070440000000     0.047950000000     0.0662468  
C360     C      0.723660000000     0.086880000000     0.098010000000     0.0692973  
C361     C      0.726150000000     0.134940000000     0.084410000000     0.0692848  
C362     C      0.696060000000     0.119700000000     0.067060000000    -0.0790278  
C363     C      0.190710000000     0.830200000000     0.646460000000     0.241819   
C364     C      0.180810000000     0.872020000000     0.653460000000     0.0808955  
C365     C      0.193830000000     0.834640000000     0.599950000000    -0.157734   
C366     C      0.210730000000     0.856970000000     0.503590000000    -0.079958   
C367     C      0.183260000000     0.876550000000     0.607040000000    -0.104654   
C368     C      0.188860000000     0.859560000000     0.529990000000     0.02288    
C369     C      0.189310000000     0.857410000000     0.579650000000     0.0667004  
C370     C      0.207630000000     0.855180000000     0.456920000000     0.0689764  
C371     C      0.162480000000     0.859690000000     0.461730000000     0.0688385  
C372     C      0.165030000000     0.861810000000     0.508450000000    -0.0800078  
C373     C      0.135120000000     0.830470000000     0.963430000000     0.243538   
C374     C      0.146790000000     0.789790000000     0.957260000000     0.081332   
C375     C      0.132880000000     0.826830000000     0.010090000000    -0.157916   
C376     C      0.118380000000     0.806050000000     0.107430000000    -0.079864   
C377     C      0.145310000000     0.786140000000     0.003850000000    -0.104665   
C378     C      0.140450000000     0.804170000000     0.080530000000     0.022902   
C379     C      0.138860000000     0.805170000000     0.030860000000     0.0671299  
C380     C      0.122370000000     0.808940000000     0.153930000000     0.0689225  
C381     C      0.168940000000     0.807080000000     0.147980000000     0.0689409  
C382     C      0.165500000000     0.803860000000     0.101430000000    -0.0797884  
C383     C      0.265250000000     0.908190000000     0.862480000000     0.241634   
C384     C      0.270740000000     0.865120000000     0.841770000000     0.0817063  
C385     C      0.295340000000     0.923140000000     0.880280000000    -0.156875   
C386     C      0.364370000000     0.957100000000     0.897030000000    -0.0788211  
C387     C      0.301050000000     0.879860000000     0.858220000000    -0.103681   
C388     C      0.345710000000     0.924690000000     0.897610000000     0.0235672  
C389     C      0.313680000000     0.909070000000     0.878460000000     0.0666319  
C390     C      0.394310000000     0.971290000000     0.914910000000     0.069561   
C391     C      0.388330000000     0.922280000000     0.933360000000     0.0699475  
C392     C      0.358050000000     0.907360000000     0.916630000000    -0.0788999  
C393     C      0.833280000000     0.696530000000     0.980630000000     0.241559   
C394     C      0.790050000000     0.645590000000     0.986820000000     0.0804695  
C395     C      0.829520000000     0.695460000000     0.933960000000    -0.157517   
C396     C      0.809480000000     0.690650000000     0.836250000000    -0.0797115  
C397     C      0.786100000000     0.643780000000     0.940320000000    -0.104958   
C398     C      0.805010000000     0.665830000000     0.863520000000     0.0228108  
C399     C      0.806390000000     0.668610000000     0.913220000000     0.0664045  
C400     C      0.811460000000     0.688680000000     0.789680000000     0.0688108  
C401     C      0.803710000000     0.637820000000     0.796350000000     0.0697017  
C402     C      0.801380000000     0.638930000000     0.842920000000    -0.0797628  
C403     C      0.874530000000     0.685550000000     0.291480000000     0.240811   
C404     C      0.828030000000     0.636810000000     0.295050000000     0.0804878  
C405     C      0.877290000000     0.685720000000     0.338270000000    -0.157925   
C406     C      0.849090000000     0.637190000000     0.439980000000    -0.0802185  
C407     C      0.830500000000     0.636230000000     0.341660000000    -0.10443    
C408     C      0.855420000000     0.662990000000     0.413620000000     0.0232264  
C409     C      0.854840000000     0.661280000000     0.363890000000     0.0663855  
C410     C      0.846940000000     0.638620000000     0.486630000000     0.0687201  
C411     C      0.857660000000     0.690610000000     0.481600000000     0.0705054  
C412     C      0.860410000000     0.690110000000     0.435070000000    -0.0794893  
C413     C      0.728320000000     0.641210000000     0.579890000000     0.241185   
C414     C      0.721850000000     0.592290000000     0.600770000000     0.0805873  
C415     C      0.698390000000     0.626560000000     0.561560000000    -0.156785   
C416     C      0.629430000000     0.592440000000     0.543910000000    -0.0784633  
C417     C      0.691700000000     0.577210000000     0.583750000000    -0.104303   
C418     C      0.647780000000     0.578320000000     0.543460000000     0.0233183  
C419     C      0.679640000000     0.594220000000     0.563150000000     0.0662954  
C420     C      0.599580000000     0.577110000000     0.525730000000     0.0701017  
C421     C      0.605070000000     0.533830000000     0.507030000000     0.0692117  
C422     C      0.635260000000     0.548760000000     0.524110000000    -0.079284   
C423     C      0.931770000000     0.686350000000     0.696530000000     0.240582   
C424     C      0.938020000000     0.735070000000     0.675000000000     0.0808437  
C425     C      0.961870000000     0.701180000000     0.714380000000    -0.156656   
C426     C      0.031100000000     0.736020000000     0.731970000000    -0.0790972  
C427     C      0.968290000000     0.750310000000     0.691490000000    -0.104149   
C428     C      0.012420000000     0.749780000000     0.731920000000     0.0235433  
C429     C      0.980520000000     0.733520000000     0.712310000000     0.0656152  
C430     C      0.061120000000     0.751980000000     0.749720000000     0.0686896  
C431     C      0.054920000000     0.795010000000     0.767200000000     0.0697424  
C432     C      0.024640000000     0.779490000000     0.750620000000    -0.0794022  
Cu1      Cu     0.832690000000     0.689580000000     0.634540000000     0.854028   
Cu2      Cu     0.827050000000     0.637720000000     0.642600000000     0.848809   
Cu3      Cu     0.160650000000     0.853650000000     0.808490000000     0.857042   
Cu4      Cu     0.165130000000     0.806730000000     0.801560000000     0.849426   
Cu5      Cu     0.497210000000     0.021740000000     0.969960000000     0.848145   
Cu6      Cu     0.494190000000     0.970940000000     0.976610000000     0.855056   
Cu7      Cu     0.164000000000     0.359960000000     0.300980000000     0.858998   
Cu8      Cu     0.162310000000     0.309830000000     0.308580000000     0.844869   
Cu9      Cu     0.828610000000     0.188930000000     0.141270000000     0.854382   
Cu10     Cu     0.830940000000     0.140780000000     0.134780000000     0.848739   
Cu11     Cu     0.496500000000     0.525630000000     0.471520000000     0.856803   
Cu12     Cu     0.499130000000     0.477670000000     0.464000000000     0.843753   
Cu13     Cu     0.142150000000     0.309120000000     0.808480000000     0.851593   
Cu14     Cu     0.189860000000     0.359860000000     0.801000000000     0.853093   
Cu15     Cu     0.302680000000     0.141520000000     0.629470000000     0.857153   
Cu16     Cu     0.353910000000     0.188020000000     0.640470000000     0.849952   
Cu17     Cu     0.975190000000     0.477930000000     0.970780000000     0.849993   
Cu18     Cu     0.025900000000     0.525830000000     0.976770000000     0.853712   
Cu19     Cu     0.639480000000     0.810160000000     0.302910000000     0.854414   
Cu20     Cu     0.690570000000     0.857510000000     0.309270000000     0.850817   
Cu21     Cu     0.807320000000     0.641330000000     0.141500000000     0.843144   
Cu22     Cu     0.855380000000     0.691900000000     0.135810000000     0.858866   
Cu23     Cu     0.471930000000     0.971760000000     0.476610000000     0.851875   
Cu24     Cu     0.518750000000     0.023220000000     0.469430000000     0.850191   
Cu25     Cu     0.352810000000     0.166550000000     0.136940000000     0.84631    
Cu26     Cu     0.302940000000     0.165830000000     0.133170000000     0.857281   
Cu27     Cu     0.521000000000     0.498370000000     0.964160000000     0.844682   
Cu28     Cu     0.472860000000     0.500650000000     0.971760000000     0.857827   
Cu29     Cu     0.190400000000     0.833060000000     0.301810000000     0.84542    
Cu30     Cu     0.141300000000     0.833730000000     0.308060000000     0.850687   
Cu31     Cu     0.028730000000     0.501620000000     0.478200000000     0.851828   
Cu32     Cu     0.978650000000     0.499990000000     0.470090000000     0.850387   
Cu33     Cu     0.853830000000     0.165080000000     0.634920000000     0.843248   
Cu34     Cu     0.806070000000     0.168160000000     0.640900000000     0.863708   
Cu35     Cu     0.690220000000     0.835610000000     0.810660000000     0.844094   
Cu36     Cu     0.639300000000     0.832090000000     0.801570000000     0.855766   
H1       H      0.665200000000     0.922250000000     0.747980000000     0.0296089  
H2       H      0.819470000000     0.068180000000     0.662420000000     0.0246357  
H3       H      0.779300000000     0.985470000000     0.754850000000     0.0503757  
H4       H      0.793800000000     0.015860000000     0.690710000000     0.0560014  
H5       H      0.690270000000     0.973960000000     0.717100000000     0.0510985  
H6       H      0.716380000000     0.026180000000     0.732140000000     0.0816432  
H7       H      0.753440000000     0.932870000000     0.782930000000     0.0278686  
H8       H      0.725780000000     0.076560000000     0.673920000000     0.15389    
H9       H      0.915940000000     0.410920000000     0.526480000000     0.0277376  
H10      H      0.921530000000     0.262580000000     0.612620000000     0.0241971  
H11      H      0.969840000000     0.350500000000     0.530420000000     0.0504317  
H12      H      0.950030000000     0.315440000000     0.586480000000     0.0561397  
H13      H      0.889030000000     0.359320000000     0.556440000000     0.0501636  
H14      H      0.863870000000     0.308660000000     0.543840000000     0.0805503  
H15      H      0.997040000000     0.403670000000     0.504590000000     0.0294338  
H16      H      0.821240000000     0.258740000000     0.600450000000     0.154826   
H17      H      0.160300000000     0.736760000000     0.331910000000     0.0278094  
H18      H      0.006280000000     0.588460000000     0.412230000000     0.0249072  
H19      H      0.055240000000     0.692130000000     0.396120000000     0.0501619  
H20      H      0.030920000000     0.639850000000     0.381280000000     0.056315   
H21      H      0.135250000000     0.684300000000     0.360530000000     0.0502306  
H22      H      0.119790000000     0.654060000000     0.424770000000     0.080077   
H23      H      0.080240000000     0.743680000000     0.364740000000     0.0279605  
H24      H      0.105080000000     0.590470000000     0.433140000000     0.15364    
H25      H      0.575950000000     0.735330000000     0.828670000000     0.0281951  
H26      H      0.583140000000     0.587640000000     0.908020000000     0.0249929  
H27      H      0.637830000000     0.692280000000     0.892960000000     0.0503449  
H28      H      0.610230000000     0.639470000000     0.878070000000     0.0564447  
H29      H      0.549470000000     0.682660000000     0.855960000000     0.0508     
H30      H      0.535140000000     0.653180000000     0.920820000000     0.0806108  
H31      H      0.663660000000     0.744410000000     0.862910000000     0.0279127  
H32      H      0.486240000000     0.589760000000     0.927920000000     0.157046   
H33      H      0.166810000000     0.922330000000     0.249470000000     0.0279597  
H34      H      0.320950000000     0.069410000000     0.161510000000     0.0245107  
H35      H      0.281060000000     0.983400000000     0.246500000000     0.0502602  
H36      H      0.296050000000     0.016870000000     0.188610000000     0.0563346  
H37      H      0.191320000000     0.973670000000     0.218190000000     0.0503708  
H38      H      0.216850000000     0.024810000000     0.228530000000     0.0800306  
H39      H      0.255400000000     0.930650000000     0.273710000000     0.0275242  
H40      H      0.225260000000     0.074650000000     0.170260000000     0.154547   
H41      H      0.405690000000     0.403480000000     0.997600000000     0.0276437  
H42      H      0.413060000000     0.253980000000     0.073620000000     0.0238099  
H43      H      0.466940000000     0.356540000000     0.050160000000     0.0488388  
H44      H      0.439360000000     0.305120000000     0.041770000000     0.0553025  
H45      H      0.378570000000     0.350680000000     0.024370000000     0.0514483  
H46      H      0.363470000000     0.318230000000     0.083140000000     0.0793811  
H47      H      0.492870000000     0.408070000000     0.019270000000     0.0269093  
H48      H      0.335110000000     0.269250000000     0.148290000000     0.151332   
H49      H      0.617780000000     0.805300000000     0.663190000000     0.0283193  
H50      H      0.714240000000     0.854460000000     0.447200000000     0.0258131  
H51      H      0.712780000000     0.816770000000     0.592990000000     0.0514705  
H52      H      0.714120000000     0.849930000000     0.527950000000     0.057309   
H53      H      0.619610000000     0.801210000000     0.582550000000     0.0510102  
H54      H      0.623300000000     0.768860000000     0.521770000000     0.0813286  
H55      H      0.710260000000     0.820720000000     0.674110000000     0.0279046  
H56      H      0.603520000000     0.777100000000     0.435280000000     0.153133   
H57      H      0.615480000000     0.813210000000     0.164610000000     0.0285389  
H58      H      0.711560000000     0.862100000000     0.948540000000     0.0255136  
H59      H      0.708030000000     0.898500000000     0.092220000000     0.0512578  
H60      H      0.710640000000     0.866460000000     0.029060000000     0.0575018  
H61      H      0.616260000000     0.818540000000     0.083780000000     0.0515091  
H62      H      0.618380000000     0.853140000000     0.021110000000     0.0811146  
H63      H      0.706580000000     0.892610000000     0.173280000000     0.0287677  
H64      H      0.600280000000     0.824700000000     0.934200000000     0.153488   
H65      H      0.739640000000     0.670880000000     0.168540000000     0.0281231  
H66      H      0.748470000000     0.827980000000     0.246240000000     0.0247343  
H67      H      0.800610000000     0.777830000000     0.225560000000     0.0512869  
H68      H      0.774130000000     0.802430000000     0.215170000000     0.056621   
H69      H      0.712360000000     0.696510000000     0.195240000000     0.0510897  
H70      H      0.695910000000     0.713940000000     0.252550000000     0.0815845  
H71      H      0.826710000000     0.752460000000     0.194690000000     0.0311837  
H72      H      0.648700000000     0.731340000000     0.258200000000     0.15629    
H73      H      0.507560000000     0.910260000000     0.448520000000     0.027871   
H74      H      0.577750000000     0.845610000000     0.328630000000     0.0250666  
H75      H      0.612480000000     0.974590000000     0.385620000000     0.0516022  
H76      H      0.551180000000     0.871500000000     0.356240000000     0.0561878  
H77      H      0.534900000000     0.885040000000     0.420690000000     0.0496697  
H78      H      0.638600000000     0.948020000000     0.400300000000     0.0794126  
H79      H      0.585040000000     0.999110000000     0.416230000000     0.0275993  
H80      H      0.675340000000     0.918310000000     0.400940000000     0.152035   
H81      H      0.050290000000     0.526250000000     0.618030000000     0.0301888  
H82      H      0.043040000000     0.558610000000     0.841380000000     0.0249713  
H83      H      0.958450000000     0.523650000000     0.685550000000     0.0509242  
H84      H      0.046250000000     0.564420000000     0.760650000000     0.0572112  
H85      H      0.048050000000     0.530660000000     0.698780000000     0.0521843  
H86      H      0.952820000000     0.488010000000     0.749060000000     0.0811191  
H87      H      0.961350000000     0.519360000000     0.604750000000     0.0277809  
H88      H      0.931640000000     0.488470000000     0.840370000000     0.150849   
H89      H      0.050730000000     0.522670000000     0.115020000000     0.0297209  
H90      H      0.955590000000     0.472960000000     0.332570000000     0.0253284  
H91      H      0.958060000000     0.437860000000     0.187930000000     0.0513023  
H92      H      0.956130000000     0.469490000000     0.251870000000     0.0576943  
H93      H      0.050320000000     0.517110000000     0.195860000000     0.0516453  
H94      H      0.048130000000     0.481960000000     0.257760000000     0.0806257  
H95      H      0.959120000000     0.443990000000     0.107030000000     0.028446   
H96      H      0.066790000000     0.509350000000     0.345160000000     0.152451   
H97      H      0.918990000000     0.666000000000     0.079540000000     0.0281135  
H98      H      0.912160000000     0.511940000000     0.995960000000     0.0247883  
H99      H      0.868060000000     0.551930000000     0.085640000000     0.0496662  
H100     H      0.884990000000     0.537470000000     0.022740000000     0.055894   
H101     H      0.945960000000     0.641030000000     0.049500000000     0.050484   
H102     H      0.972020000000     0.615080000000     0.065750000000     0.0801978  
H103     H      0.841000000000     0.577720000000     0.112810000000     0.0271088  
H104     H      0.013850000000     0.605800000000     0.009230000000     0.153605   
H105     H      0.364480000000     0.144110000000     0.001770000000     0.0277301  
H106     H      0.372750000000     0.180540000000     0.778500000000     0.0251004  
H107     H      0.276380000000     0.134650000000     0.913170000000     0.0519751  
H108     H      0.370510000000     0.175400000000     0.858990000000     0.0572839  
H109     H      0.365010000000     0.139000000000     0.920970000000     0.0507014  
H110     H      0.276070000000     0.100730000000     0.849550000000     0.0813668  
H111     H      0.276460000000     0.139800000000     0.994210000000     0.0291054  
H112     H      0.260670000000     0.112690000000     0.761400000000     0.156203   
H113     H      0.379680000000     0.193020000000     0.275450000000     0.0282185  
H114     H      0.283790000000     0.148780000000     0.491490000000     0.0259551  
H115     H      0.290380000000     0.191520000000     0.349990000000     0.0509715  
H116     H      0.285730000000     0.154660000000     0.411120000000     0.0587627  
H117     H      0.379780000000     0.197490000000     0.356570000000     0.0534138  
H118     H      0.379450000000     0.230710000000     0.420960000000     0.0799984  
H119     H      0.290910000000     0.187140000000     0.269010000000     0.0304677  
H120     H      0.379590000000     0.246850000000     0.515010000000     0.152077   
H121     H      0.327860000000     0.075940000000     0.577800000000     0.0296751  
H122     H      0.482870000000     0.084240000000     0.496020000000     0.0269639  
H123     H      0.441720000000     0.125350000000     0.588260000000     0.0508609  
H124     H      0.456590000000     0.110390000000     0.523640000000     0.0574318  
H125     H      0.352890000000     0.048930000000     0.547670000000     0.0511976  
H126     H      0.378820000000     0.022250000000     0.562460000000     0.080907   
H127     H      0.416020000000     0.152390000000     0.615600000000     0.02915    
H128     H      0.389580000000     0.981990000000     0.504240000000     0.15391    
H129     H      0.004540000000     0.410070000000     0.943420000000     0.028877   
H130     H      0.161250000000     0.418700000000     0.863750000000     0.0274935  
H131     H      0.111560000000     0.471160000000     0.886580000000     0.0500017  
H132     H      0.135990000000     0.444420000000     0.895690000000     0.0570254  
H133     H      0.030010000000     0.382840000000     0.915820000000     0.052414   
H134     H      0.047180000000     0.366900000000     0.857580000000     0.0799535  
H135     H      0.086370000000     0.497140000000     0.918330000000     0.027755   
H136     H      0.067790000000     0.338310000000     0.792560000000     0.151588   
H137     H      0.175290000000     0.245610000000     0.779000000000     0.0282132  
H138     H      0.328880000000     0.252180000000     0.695340000000     0.0247255  
H139     H      0.279990000000     0.308040000000     0.714360000000     0.0498901  
H140     H      0.304800000000     0.279410000000     0.727410000000     0.0561942  
H141     H      0.201090000000     0.219340000000     0.749040000000     0.052205   
H142     H      0.215700000000     0.206860000000     0.681280000000     0.0799411  
H143     H      0.254070000000     0.333600000000     0.746710000000     0.028211   
H144     H      0.236260000000     0.179440000000     0.613850000000     0.151398   
H145     H      0.483130000000     0.443370000000     0.600030000000     0.0275216  
H146     H      0.518010000000     0.473200000000     0.825630000000     0.0246406  
H147     H      0.464570000000     0.515360000000     0.690950000000     0.0534167  
H148     H      0.513460000000     0.469710000000     0.744870000000     0.0569076  
H149     H      0.479260000000     0.437200000000     0.681020000000     0.0499207  
H150     H      0.432060000000     0.478920000000     0.752600000000     0.0807392  
H151     H      0.468650000000     0.521050000000     0.610060000000     0.0287108  
H152     H      0.415350000000     0.460950000000     0.845930000000     0.152432   
H153     H      0.476360000000     0.527140000000     0.110290000000     0.0302669  
H154     H      0.525750000000     0.481280000000     0.326280000000     0.0250282  
H155     H      0.562540000000     0.520610000000     0.181300000000     0.050877   
H156     H      0.529860000000     0.485830000000     0.245580000000     0.0572082  
H157     H      0.482470000000     0.532230000000     0.190990000000     0.0518442  
H158     H      0.519170000000     0.566350000000     0.252040000000     0.0818062  
H159     H      0.555990000000     0.515800000000     0.100280000000     0.0275431  
H160     H      0.491380000000     0.557660000000     0.339080000000     0.152908   
H161     H      0.848520000000     0.224750000000     0.006400000000     0.0286708  
H162     H      0.885980000000     0.179560000000     0.770590000000     0.0256622  
H163     H      0.858370000000     0.148020000000     0.913650000000     0.0527597  
H164     H      0.891720000000     0.182210000000     0.851260000000     0.0581776  
H165     H      0.852480000000     0.231280000000     0.925540000000     0.051298   
H166     H      0.817090000000     0.202060000000     0.862230000000     0.0822773  
H167     H      0.854400000000     0.142090000000     0.994540000000     0.0302358  
H168     H      0.818320000000     0.223840000000     0.770790000000     0.151203   
H169     H      0.770170000000     0.147100000000     0.505720000000     0.0304513  
H170     H      0.817120000000     0.109010000000     0.271180000000     0.0250869  
H171     H      0.846630000000     0.135350000000     0.415020000000     0.0511552  
H172     H      0.813420000000     0.102830000000     0.351840000000     0.0571416  
H173     H      0.764010000000     0.142640000000     0.424790000000     0.0516261  
H174     H      0.793790000000     0.177630000000     0.362030000000     0.0825694  
H175     H      0.852110000000     0.139720000000     0.495870000000     0.0280161  
H176     H      0.773060000000     0.176880000000     0.270170000000     0.151868   
H177     H      0.107680000000     0.290870000000     0.672430000000     0.0282883  
H178     H      0.137320000000     0.287250000000     0.446770000000     0.0251685  
H179     H      0.178530000000     0.382110000000     0.581840000000     0.0548495  
H180     H      0.133990000000     0.288080000000     0.527490000000     0.0575141  
H181     H      0.101020000000     0.288970000000     0.591550000000     0.0502979  
H182     H      0.141270000000     0.377850000000     0.520410000000     0.0818029  
H183     H      0.184760000000     0.383320000000     0.662650000000     0.0288997  
H184     H      0.122950000000     0.376470000000     0.427100000000     0.153495   
H185     H      0.192180000000     0.383640000000     0.162470000000     0.0285853  
H186     H      0.144980000000     0.287090000000     0.946930000000     0.0267029  
H187     H      0.183600000000     0.290000000000     0.091790000000     0.0513309  
H188     H      0.149200000000     0.288200000000     0.027700000000     0.0585978  
H189     H      0.197060000000     0.382340000000     0.081640000000     0.0538291  
H190     H      0.230570000000     0.378720000000     0.020300000000     0.0808601  
H191     H      0.178990000000     0.291990000000     0.172670000000     0.0283354  
H192     H      0.247710000000     0.377440000000     0.927100000000     0.153092   
H193     H      0.065480000000     0.244730000000     0.280430000000     0.0276386  
H194     H      0.917460000000     0.250970000000     0.198920000000     0.0273927  
H195     H      0.021660000000     0.305710000000     0.215360000000     0.0515018  
H196     H      0.969000000000     0.277970000000     0.229850000000     0.057478   
H197     H      0.012880000000     0.217740000000     0.252390000000     0.0502621  
H198     H      0.983270000000     0.203160000000     0.187560000000     0.0800588  
H199     H      0.073490000000     0.331940000000     0.246100000000     0.0292804  
H200     H      0.919880000000     0.154260000000     0.179310000000     0.153807   
H201     H      0.407370000000     0.497770000000     0.413700000000     0.0274758  
H202     H      0.260340000000     0.341890000000     0.329730000000     0.0242166  
H203     H      0.348380000000     0.383480000000     0.411410000000     0.0495541  
H204     H      0.313300000000     0.367310000000     0.355500000000     0.0556977  
H205     H      0.355770000000     0.472260000000     0.383540000000     0.0501015  
H206     H      0.305060000000     0.446290000000     0.395580000000     0.0808096  
H207     H      0.401520000000     0.410250000000     0.437380000000     0.027079   
H208     H      0.254530000000     0.437320000000     0.338680000000     0.154966   
H209     H      0.553110000000     0.041640000000     0.605710000000     0.0284212  
H210     H      0.523630000000     0.045350000000     0.832110000000     0.0258088  
H211     H      0.481750000000     0.950630000000     0.696290000000     0.0546534  
H212     H      0.527360000000     0.044950000000     0.751320000000     0.0582382  
H213     H      0.559400000000     0.043720000000     0.686730000000     0.0515291  
H214     H      0.518090000000     0.954310000000     0.757480000000     0.0818356  
H215     H      0.475970000000     0.949230000000     0.615500000000     0.0302678  
H216     H      0.535820000000     0.954870000000     0.850840000000     0.157207   
H217     H      0.475740000000     0.036830000000     0.104950000000     0.027658   
H218     H      0.438830000000     0.952940000000     0.340670000000     0.0249537  
H219     H      0.464130000000     0.948990000000     0.196410000000     0.0505382  
H220     H      0.432010000000     0.949860000000     0.260060000000     0.0566599  
H221     H      0.471040000000     0.038660000000     0.185810000000     0.0518551  
H222     H      0.506340000000     0.044280000000     0.248110000000     0.0801664  
H223     H      0.468700000000     0.947740000000     0.115620000000     0.028091   
H224     H      0.536950000000     0.052070000000     0.331780000000     0.154241   
H225     H      0.733760000000     0.073290000000     0.109990000000     0.028292   
H226     H      0.584430000000     0.080500000000     0.033020000000     0.0242707  
H227     H      0.686840000000     0.133700000000     0.053850000000     0.0502147  
H228     H      0.635700000000     0.106720000000     0.063930000000     0.0559339  
H229     H      0.680810000000     0.045770000000     0.083780000000     0.0508423  
H230     H      0.647170000000     0.029220000000     0.026310000000     0.0810709  
H231     H      0.738500000000     0.160100000000     0.084260000000     0.0280151  
H232     H      0.582870000000     0.981450000000     0.020800000000     0.15585    
H233     H      0.224650000000     0.852400000000     0.437890000000     0.0282931  
H234     H      0.175600000000     0.887200000000     0.673080000000     0.0261     
H235     H      0.147570000000     0.863730000000     0.527620000000     0.0508139  
H236     H      0.180050000000     0.894750000000     0.592660000000     0.0575847  
H237     H      0.229790000000     0.855680000000     0.518950000000     0.0530506  
H238     H      0.198520000000     0.819340000000     0.579740000000     0.0810261  
H239     H      0.143080000000     0.860500000000     0.446560000000     0.0280104  
H240     H      0.174500000000     0.788120000000     0.662910000000     0.154594   
H241     H      0.105080000000     0.811030000000     0.173360000000     0.0283947  
H242     H      0.152460000000     0.774840000000     0.937900000000     0.0254651  
H243     H      0.183160000000     0.802590000000     0.081810000000     0.0512202  
H244     H      0.149640000000     0.768770000000     0.018660000000     0.0573709  
H245     H      0.098430000000     0.805910000000     0.092560000000     0.0527277  
H246     H      0.127760000000     0.841950000000     0.030000000000     0.081368   
H247     H      0.189190000000     0.807700000000     0.162630000000     0.0279964  
H248     H      0.149400000000     0.872010000000     0.945680000000     0.158728   
H249     H      0.407920000000     0.996380000000     0.913320000000     0.0284055  
H250     H      0.262110000000     0.842410000000     0.826800000000     0.0272038  
H251     H      0.344420000000     0.882340000000     0.919020000000     0.0508141  
H252     H      0.314450000000     0.868280000000     0.854730000000     0.0578045  
H253     H      0.356280000000     0.971600000000     0.882080000000     0.051251   
H254     H      0.303860000000     0.945500000000     0.896230000000     0.0806282  
H255     H      0.396930000000     0.907910000000     0.947420000000     0.029305   
H256     H      0.253040000000     0.935590000000     0.838130000000     0.155568   
H257     H      0.815600000000     0.708680000000     0.769920000000     0.0281911  
H258     H      0.774020000000     0.625410000000     0.006140000000     0.0249866  
H259     H      0.798070000000     0.619250000000     0.862750000000     0.050893   
H260     H      0.767520000000     0.622770000000     0.925640000000     0.0563776  
H261     H      0.811940000000     0.711710000000     0.850820000000     0.0521772  
H262     H      0.845650000000     0.715200000000     0.914030000000     0.0809098  
H263     H      0.801630000000     0.616840000000     0.782000000000     0.0292038  
H264     H      0.875350000000     0.720980000000     0.998150000000     0.154905   
H265     H      0.841420000000     0.617960000000     0.505760000000     0.0274779  
H266     H      0.808160000000     0.617240000000     0.279620000000     0.0253086  
H267     H      0.865170000000     0.710520000000     0.415880000000     0.0544425  
H268     H      0.812600000000     0.616850000000     0.360300000000     0.0578137  
H269     H      0.845430000000     0.615890000000     0.424610000000     0.0499619  
H270     H      0.896810000000     0.705210000000     0.354450000000     0.0804337  
H271     H      0.860920000000     0.711880000000     0.496620000000     0.030004   
H272     H      0.912920000000     0.704310000000     0.260660000000     0.152497   
H273     H      0.586200000000     0.588860000000     0.527300000000     0.0304208  
H274     H      0.730030000000     0.577890000000     0.615980000000     0.0245814  
H275     H      0.648670000000     0.537120000000     0.521810000000     0.0500781  
H276     H      0.677940000000     0.552240000000     0.587050000000     0.0558207  
H277     H      0.637690000000     0.615000000000     0.559050000000     0.0516111  
H278     H      0.690300000000     0.640720000000     0.545400000000     0.0818617  
H279     H      0.596300000000     0.510900000000     0.492780000000     0.027544   
H280     H      0.740880000000     0.680840000000     0.604380000000     0.153633   
H281     H      0.074840000000     0.740590000000     0.748490000000     0.0277423  
H282     H      0.929730000000     0.749340000000     0.659660000000     0.0250057  
H283     H      0.010960000000     0.790850000000     0.752730000000     0.0512444  
H284     H      0.981980000000     0.775240000000     0.687650000000     0.05628    
H285     H      0.023010000000     0.713310000000     0.717480000000     0.0503091  
H286     H      0.970140000000     0.687210000000     0.730620000000     0.0799743  
H287     H      0.063410000000     0.818060000000     0.780840000000     0.0300939  
H288     H      0.919010000000     0.646530000000     0.672620000000     0.152999   
N1       N      0.782780000000     0.077290000000     0.679430000000    -0.219385   
N2       N      0.707430000000     0.923590000000     0.767420000000    -0.191267   
N3       N      0.876570000000     0.255820000000     0.596100000000    -0.220206   
N4       N      0.958480000000     0.411150000000     0.513320000000    -0.191277   
N5       N      0.048410000000     0.590630000000     0.434750000000    -0.219742   
N6       N      0.122210000000     0.744170000000     0.346250000000    -0.191522   
N7       N      0.542960000000     0.589630000000     0.929860000000    -0.219391   
N8       N      0.621750000000     0.743900000000     0.844050000000    -0.191564   
N9       N      0.283070000000     0.076940000000     0.176940000000    -0.220122   
N10      N      0.209260000000     0.922620000000     0.263740000000    -0.191689   
N11      N      0.372610000000     0.255680000000     0.094400000000    -0.220247   
N12      N      0.451240000000     0.409710000000     0.006540000000    -0.191742   
N13      N      0.668560000000     0.815200000000     0.437510000000    -0.218772   
N14      N      0.664060000000     0.813860000000     0.674620000000    -0.191422   
N15      N      0.665350000000     0.854130000000     0.937800000000    -0.21914    
N16      N      0.661220000000     0.852090000000     0.174900000000    -0.191228   
N17      N      0.706860000000     0.786260000000     0.265090000000    -0.219795   
N18      N      0.785140000000     0.709770000000     0.179460000000    -0.19093    
N19      N      0.623420000000     0.881680000000     0.347350000000    -0.219447   
N20      N      0.544150000000     0.956540000000     0.434210000000    -0.191517   
N21      N      0.996640000000     0.519490000000     0.842140000000    -0.219865   
N22      N      0.005730000000     0.521840000000     0.605450000000    -0.191077   
N23      N      0.001710000000     0.480460000000     0.342300000000    -0.219225   
N24      N      0.004750000000     0.484150000000     0.105080000000    -0.190939   
N25      N      0.957670000000     0.548740000000     0.013830000000    -0.219567   
N26      N      0.877930000000     0.623750000000     0.098210000000    -0.191673   
N27      N      0.325690000000     0.144360000000     0.766880000000    -0.219349   
N28      N      0.320780000000     0.143090000000     0.003930000000    -0.191399   
N29      N      0.330480000000     0.185720000000     0.503300000000    -0.219585   
N30      N      0.334980000000     0.188980000000     0.266290000000    -0.191144   
N31      N      0.446210000000     0.038240000000     0.512040000000    -0.21917    
N32      N      0.370060000000     0.116320000000     0.598460000000    -0.190842   
N33      N      0.119340000000     0.377490000000     0.844410000000    -0.22003    
N34      N      0.043550000000     0.455560000000     0.933050000000    -0.191619   
N35      N      0.286470000000     0.213280000000     0.671540000000    -0.219995   
N36      N      0.212600000000     0.291540000000     0.764730000000    -0.191605   
N37      N      0.478370000000     0.478910000000     0.836190000000    -0.219683   
N38      N      0.476800000000     0.483040000000     0.599090000000    -0.191644   
N39      N      0.519100000000     0.520410000000     0.336220000000    -0.219272   
N40      N      0.515350000000     0.520510000000     0.099360000000    -0.191231   
N41      N      0.847780000000     0.188330000000     0.769460000000    -0.219291   
N42      N      0.850530000000     0.182600000000     0.006440000000    -0.190872   
N43      N      0.808440000000     0.147250000000     0.269750000000    -0.219708   
N44      N      0.811970000000     0.144450000000     0.506750000000    -0.191001   
N45      N      0.142030000000     0.332200000000     0.436440000000    -0.219022   
N46      N      0.147100000000     0.336990000000     0.673480000000    -0.191487   
N47      N      0.184670000000     0.332380000000     0.936470000000    -0.219253   
N48      N      0.184620000000     0.337710000000     0.173520000000    -0.191484   
N49      N      0.919720000000     0.210940000000     0.177170000000    -0.219142   
N50      N      0.073490000000     0.290320000000     0.265180000000    -0.191458   
N51      N      0.252760000000     0.379730000000     0.345070000000    -0.219786   
N52      N      0.408290000000     0.455930000000     0.427770000000    -0.191722   
N53      N      0.517760000000     0.999880000000     0.841860000000    -0.218929   
N54      N      0.513740000000     0.995510000000     0.604630000000    -0.191035   
N55      N      0.477010000000     0.999850000000     0.341180000000    -0.219489   
N56      N      0.473310000000     0.992500000000     0.104350000000    -0.19148    
N57      N      0.585160000000     0.039210000000     0.014120000000    -0.220119   
N58      N      0.740040000000     0.118690000000     0.099110000000    -0.191586   
N59      N      0.183550000000     0.848480000000     0.673160000000    -0.21942    
N60      N      0.183060000000     0.855420000000     0.436250000000    -0.191467   
N61      N      0.142820000000     0.812450000000     0.937060000000    -0.219204   
N62      N      0.148000000000     0.810480000000     0.173920000000    -0.1914     
N63      N      0.252720000000     0.878880000000     0.844070000000    -0.21943    
N64      N      0.406380000000     0.954010000000     0.932380000000    -0.19116    
N65      N      0.814040000000     0.671260000000     0.006990000000    -0.219249   
N66      N      0.809550000000     0.662810000000     0.769990000000    -0.191149   
N67      N      0.849200000000     0.661670000000     0.270030000000    -0.21936    
N68      N      0.850270000000     0.664850000000     0.507150000000    -0.191199   
N69      N      0.740310000000     0.624010000000     0.598640000000    -0.219695   
N70      N      0.587280000000     0.547820000000     0.508050000000    -0.191098   
N71      N      0.919600000000     0.703390000000     0.677790000000    -0.219588   
N72      N      0.073150000000     0.781500000000     0.766430000000    -0.191354   
O1       O      0.877600000000     0.706830000000     0.652950000000    -0.400225   
O2       O      0.787240000000     0.667230000000     0.616330000000    -0.385938   
O3       O      0.820670000000     0.686040000000     0.700410000000    -0.397072   
O4       O      0.844320000000     0.688280000000     0.569760000000    -0.395795   
O5       O      0.838820000000     0.641210000000     0.576530000000    -0.396298   
O6       O      0.815650000000     0.639190000000     0.707590000000    -0.394802   
O7       O      0.782070000000     0.620450000000     0.624360000000    -0.399824   
O8       O      0.872590000000     0.660080000000     0.660520000000    -0.385722   
O9       O      0.115560000000     0.826660000000     0.790520000000    -0.395767   
O10      O      0.206160000000     0.876080000000     0.826380000000    -0.38625    
O11      O      0.172490000000     0.861240000000     0.742470000000    -0.399428   
O12      O      0.149090000000     0.841470000000     0.873520000000    -0.386156   
O13      O      0.153430000000     0.799260000000     0.867710000000    -0.398093   
O14      O      0.176630000000     0.818940000000     0.736440000000    -0.387873   
O15      O      0.210250000000     0.833780000000     0.819480000000    -0.39735    
O16      O      0.119550000000     0.784210000000     0.783790000000    -0.396719   
O17      O      0.541820000000     0.040580000000     0.990710000000    -0.400548   
O18      O      0.452230000000     0.998030000000     0.950010000000    -0.397698   
O19      O      0.483790000000     0.016440000000     0.035320000000    -0.397249   
O20      O      0.510400000000     0.022040000000     0.905240000000    -0.398009   
O21      O      0.506170000000     0.975540000000     0.910850000000    -0.381676   
O22      O      0.482350000000     0.971140000000     0.041750000000    -0.398345   
O23      O      0.448900000000     0.951980000000     0.958420000000    -0.393899   
O24      O      0.539860000000     0.994960000000     0.993980000000    -0.38744    
O25      O      0.208790000000     0.379880000000     0.321190000000    -0.387192   
O26      O      0.118890000000     0.335170000000     0.281730000000    -0.397505   
O27      O      0.151110000000     0.355130000000     0.366470000000    -0.381373   
O28      O      0.176950000000     0.360010000000     0.236270000000    -0.397694   
O29      O      0.173790000000     0.313910000000     0.242590000000    -0.397478   
O30      O      0.150830000000     0.310540000000     0.373820000000    -0.398842   
O31      O      0.116820000000     0.289760000000     0.291040000000    -0.39648    
O32      O      0.208090000000     0.334890000000     0.325290000000    -0.397094   
O33      O      0.783710000000     0.163460000000     0.121300000000    -0.397016   
O34      O      0.873850000000     0.209720000000     0.160470000000    -0.396581   
O35      O      0.841420000000     0.196650000000     0.075830000000    -0.397306   
O36      O      0.815830000000     0.176520000000     0.206050000000    -0.384139   
O37      O      0.819730000000     0.134020000000     0.201000000000    -0.39952    
O38      O      0.842040000000     0.152370000000     0.069200000000    -0.393276   
O39      O      0.876410000000     0.166670000000     0.151780000000    -0.387188   
O40      O      0.785160000000     0.119450000000     0.118580000000    -0.396364   
O41      O      0.541570000000     0.546510000000     0.490920000000    -0.395458   
O42      O      0.451780000000     0.500260000000     0.451240000000    -0.399167   
O43      O      0.483640000000     0.512620000000     0.536190000000    -0.397408   
O44      O      0.509480000000     0.533860000000     0.406100000000    -0.385551   
O45      O      0.510570000000     0.489960000000     0.398790000000    -0.399599   
O46      O      0.487660000000     0.470160000000     0.529980000000    -0.397568   
O47      O      0.453310000000     0.456330000000     0.447230000000    -0.395416   
O48      O      0.544550000000     0.503650000000     0.481670000000    -0.395786   
O49      O      0.120450000000     0.333200000000     0.825020000000    -0.382099   
O50      O      0.168390000000     0.290010000000     0.790990000000    -0.397587   
O51      O      0.154430000000     0.310140000000     0.873780000000    -0.397682   
O52      O      0.134600000000     0.313010000000     0.742450000000    -0.396655   
O53      O      0.176850000000     0.359620000000     0.736270000000    -0.397177   
O54      O      0.198120000000     0.355290000000     0.866480000000    -0.384668   
O55      O      0.211130000000     0.335900000000     0.781770000000    -0.397062   
O56      O      0.164050000000     0.378840000000     0.821120000000    -0.397694   
O57      O      0.284280000000     0.168430000000     0.646370000000    -0.384823   
O58      O      0.326070000000     0.119090000000     0.613110000000    -0.394424   
O59      O      0.304390000000     0.132520000000     0.695680000000    -0.383443   
O60      O      0.305810000000     0.155180000000     0.564670000000    -0.400161   
O61      O      0.352180000000     0.197050000000     0.574270000000    -0.384901   
O62      O      0.350730000000     0.174420000000     0.705300000000    -0.400667   
O63      O      0.372370000000     0.161100000000     0.623610000000    -0.394376   
O64      O      0.330470000000     0.210420000000     0.656760000000    -0.39968    
O65      O      0.999340000000     0.456340000000     0.953610000000    -0.393949   
O66      O      0.956070000000     0.504180000000     0.988590000000    -0.398299   
O67      O      0.975210000000     0.489630000000     0.905470000000    -0.38331    
O68      O      0.980000000000     0.470940000000     0.036690000000    -0.397296   
O69      O      0.026520000000     0.513450000000     0.041610000000    -0.394258   
O70      O      0.020430000000     0.533440000000     0.911310000000    -0.400108   
O71      O      0.001960000000     0.546970000000     0.996330000000    -0.387272   
O72      O      0.044920000000     0.500170000000     0.956440000000    -0.398999   
O73      O      0.621080000000     0.836940000000     0.321330000000    -0.399541   
O74      O      0.662960000000     0.787990000000     0.285310000000    -0.385253   
O75      O      0.644170000000     0.802670000000     0.368560000000    -0.384551   
O76      O      0.639620000000     0.822220000000     0.237830000000    -0.398367   
O77      O      0.685390000000     0.865570000000     0.243800000000    -0.394884   
O78      O      0.690800000000     0.844720000000     0.374120000000    -0.397648   
O79      O      0.708900000000     0.831230000000     0.288680000000    -0.399762   
O80      O      0.667300000000     0.879320000000     0.329120000000    -0.384599   
O81      O      0.785850000000     0.665550000000     0.158820000000    -0.394648   
O82      O      0.833400000000     0.622060000000     0.123520000000    -0.397081   
O83      O      0.818940000000     0.641060000000     0.206870000000    -0.398645   
O84      O      0.800550000000     0.646500000000     0.075550000000    -0.399212   
O85      O      0.843050000000     0.692880000000     0.071080000000    -0.387329   
O86      O      0.863000000000     0.686010000000     0.201040000000    -0.38489    
O87      O      0.876390000000     0.667940000000     0.115790000000    -0.398968   
O88      O      0.829830000000     0.711010000000     0.156550000000    -0.393478   
O89      O      0.499020000000     0.953760000000     0.458660000000    -0.398404   
O90      O      0.449320000000     0.994670000000     0.494400000000    -0.385241   
O91      O      0.464260000000     0.975920000000     0.410480000000    -0.398958   
O92      O      0.484280000000     0.972600000000     0.541740000000    -0.394293   
O93      O      0.526580000000     0.019160000000     0.535380000000    -0.396721   
O94      O      0.506360000000     0.022490000000     0.404500000000    -0.389228   
O95      O      0.491530000000     0.041120000000     0.487640000000    -0.396359   
O96      O      0.541340000000     0.000220000000     0.451410000000    -0.39675    
O97      O      0.327760000000     0.121290000000     0.155900000000    -0.398176   
O98      O      0.372860000000     0.211540000000     0.116910000000    -0.399415   
O99      O      0.354800000000     0.179610000000     0.202140000000    -0.396216   
O100     O      0.346080000000     0.153520000000     0.071690000000    -0.398942   
O101     O      0.301050000000     0.152890000000     0.067860000000    -0.395562   
O102     O      0.309620000000     0.178700000000     0.198550000000    -0.394255   
O103     O      0.327890000000     0.211060000000     0.114590000000    -0.383676   
O104     O      0.282880000000     0.120910000000     0.153040000000    -0.388751   
O105     O      0.495700000000     0.453380000000     0.983560000000    -0.398099   
O106     O      0.541740000000     0.543690000000     0.945670000000    -0.398925   
O107     O      0.528940000000     0.510750000000     0.029930000000    -0.396174   
O108     O      0.508200000000     0.486060000000     0.899160000000    -0.399169   
O109     O      0.465480000000     0.489430000000     0.905800000000    -0.386336   
O110     O      0.484920000000     0.511860000000     0.036970000000    -0.395762   
O111     O      0.498640000000     0.546110000000     0.954700000000    -0.385442   
O112     O      0.451740000000     0.454850000000     0.988000000000    -0.396682   
O113     O      0.210350000000     0.878580000000     0.284270000000    -0.395702   
O114     O      0.165690000000     0.787690000000     0.320110000000    -0.396226   
O115     O      0.178710000000     0.820850000000     0.236580000000    -0.3966     
O116     O      0.197190000000     0.845130000000     0.367660000000    -0.396891   
O117     O      0.153620000000     0.847260000000     0.372740000000    -0.397026   
O118     O      0.133760000000     0.820190000000     0.242820000000    -0.39729    
O119     O      0.121770000000     0.788880000000     0.328180000000    -0.397681   
O120     O      0.165520000000     0.878440000000     0.287200000000    -0.397976   
O121     O      0.048910000000     0.547170000000     0.460930000000    -0.38669    
O122     O      0.003590000000     0.455790000000     0.494540000000    -0.392537   
O123     O      0.024950000000     0.490410000000     0.412110000000    -0.386381   
O124     O      0.027740000000     0.512910000000     0.543470000000    -0.394111   
O125     O      0.983070000000     0.512640000000     0.535620000000    -0.397677   
O126     O      0.979030000000     0.487400000000     0.405340000000    -0.400456   
O127     O      0.958550000000     0.455130000000     0.489870000000    -0.398529   
O128     O      0.003590000000     0.545110000000     0.451240000000    -0.400614   
O129     O      0.875580000000     0.210770000000     0.617350000000    -0.397035   
O130     O      0.827380000000     0.119800000000     0.653220000000    -0.397844   
O131     O      0.842040000000     0.153230000000     0.569690000000    -0.396965   
O132     O      0.860930000000     0.177030000000     0.700750000000    -0.399497   
O133     O      0.818690000000     0.181420000000     0.705610000000    -0.381108   
O134     O      0.798160000000     0.154700000000     0.575620000000    -0.39491    
O135     O      0.784780000000     0.123280000000     0.661010000000    -0.386245   
O136     O      0.831850000000     0.212650000000     0.620020000000    -0.390373   
O137     O      0.666200000000     0.789950000000     0.828010000000    -0.395875   
O138     O      0.709260000000     0.880900000000     0.792880000000    -0.396436   
O139     O      0.688580000000     0.846970000000     0.875620000000    -0.399172   
O140     O      0.686990000000     0.824120000000     0.744490000000    -0.395648   
O141     O      0.640770000000     0.820570000000     0.736800000000    -0.398681   
O142     O      0.642670000000     0.843830000000     0.867520000000    -0.385228   
O143     O      0.663230000000     0.877580000000     0.783960000000    -0.395192   
O144     O      0.620270000000     0.786910000000     0.819480000000    -0.39866    
O145     O      0.738470000000     0.081440000000     0.701600000000    -0.289681   
O146     O      0.829170000000     0.253610000000     0.573120000000    -0.294125   
O147     O      0.098470000000     0.599320000000     0.457740000000    -0.293184   
O148     O      0.501540000000     0.598290000000     0.952760000000    -0.293604   
O149     O      0.237920000000     0.079790000000     0.198010000000    -0.29459    
O150     O      0.330590000000     0.263570000000     0.116150000000    -0.292943   
O151     O      0.618210000000     0.769080000000     0.435670000000    -0.288891   
O152     O      0.614040000000     0.847550000000     0.934820000000    -0.291537   
O153     O      0.663260000000     0.736630000000     0.283780000000    -0.289991   
O154     O      0.671740000000     0.925230000000     0.371450000000    -0.292849   
O155     O      0.943890000000     0.478110000000     0.834260000000    -0.292217   
O156     O      0.052850000000     0.486530000000     0.344100000000    -0.291973   
O157     O      0.005730000000     0.593110000000     0.036850000000    -0.293301   
O158     O      0.273050000000     0.102090000000     0.762940000000    -0.291962   
O159     O      0.382510000000     0.229040000000     0.507530000000    -0.293197   
O160     O      0.401720000000     0.989520000000     0.532430000000    -0.292688   
O161     O      0.069630000000     0.334410000000     0.824770000000    -0.292492   
O162     O      0.236390000000     0.173660000000     0.645690000000    -0.292825   
O163     O      0.431860000000     0.482450000000     0.839030000000    -0.293013   
O164     O      0.514150000000     0.566120000000     0.338340000000    -0.290707   
O165     O      0.807420000000     0.201240000000     0.776990000000    -0.28948    
O166     O      0.795600000000     0.187690000000     0.276890000000    -0.292068   
O167     O      0.144570000000     0.381760000000     0.433880000000    -0.288528   
O168     O      0.231120000000     0.382380000000     0.933760000000    -0.293055   
O169     O      0.928630000000     0.169640000000     0.154600000000    -0.293447   
O170     O      0.249740000000     0.424720000000     0.366440000000    -0.290052   
O171     O      0.514320000000     0.949890000000     0.843840000000    -0.291893   
O172     O      0.517510000000     0.053030000000     0.332810000000    -0.29401    
O173     O      0.591920000000     0.996050000000     0.995230000000    -0.293521   
O174     O      0.195130000000     0.807230000000     0.664280000000    -0.293189   
O175     O      0.129220000000     0.852340000000     0.945100000000    -0.293659   
O176     O      0.248370000000     0.923070000000     0.865940000000    -0.294243   
O177     O      0.856730000000     0.723390000000     0.998920000000    -0.293053   
O178     O      0.897220000000     0.710330000000     0.268190000000    -0.292749   
O179     O      0.745600000000     0.672940000000     0.576670000000    -0.292419   
O180     O      0.914510000000     0.654650000000     0.700300000000    -0.293739   


