data_structure

_audit_creation_method RASPA-1.0
_audit_creation_date 2023-5-23
_audit_author_name 'Poobodin Mano'

_cell_length_a    46.0611
_cell_length_b    46.0608
_cell_length_c    38.8954
_cell_angle_alpha 90.0011
_cell_angle_beta  89.9989
_cell_angle_gamma 89.9948
_cell_volume      82520.9

_symmetry_cell_setting          triclinic
_symmetry_space_group_name_Hall 'P 1'
_symmetry_space_group_name_H-M  'P 1'
_symmetry_Int_Tables_number     1

_symmetry_equiv_pos_as_xyz 'x,y,z'

loop_
_atom_site_label
_atom_site_type_symbol
_atom_site_fract_x
_atom_site_fract_y
_atom_site_fract_z
_atom_site_charge
C1       C      0.419000000000     0.283730000000     0.969240000000     0.405817   
C2       C      0.501130000000     0.283540000000     0.066010000000     0.40584    
C3       C      0.419040000000     0.283700000000     0.066050000000     0.405731   
C4       C      0.501100000000     0.283560000000     0.969190000000     0.406083   
C5       C      0.187860000000     0.596920000000     0.969380000000     0.40604    
C6       C      0.188000000000     0.514780000000     0.066140000000     0.405681   
C7       C      0.187890000000     0.596880000000     0.066200000000     0.405738   
C8       C      0.187980000000     0.514830000000     0.969330000000     0.405834   
C9       C      0.500520000000     0.827160000000     0.066170000000     0.405937   
C10      C      0.418380000000     0.827360000000     0.969400000000     0.405726   
C11      C      0.500480000000     0.827190000000     0.969360000000     0.406026   
C12      C      0.418420000000     0.827330000000     0.066210000000     0.405734   
C13      C      0.731650000000     0.513970000000     0.066020000000     0.405871   
C14      C      0.731510000000     0.596110000000     0.969270000000     0.406039   
C15      C      0.731630000000     0.514010000000     0.969210000000     0.406005   
C16      C      0.731540000000     0.596070000000     0.066070000000     0.405724   
C17      C      0.231510000000     0.014820000000     0.566190000000     0.405896   
C18      C      0.231650000000     0.096880000000     0.469340000000     0.405782   
C19      C      0.231530000000     0.014780000000     0.469380000000     0.405667   
C20      C      0.231630000000     0.096920000000     0.566150000000     0.406002   
C21      C      0.918410000000     0.783540000000     0.469370000000     0.406065   
C22      C      0.000490000000     0.783730000000     0.566200000000     0.404051   
C23      C      0.918390000000     0.783560000000     0.566180000000     0.405827   
C24      C      0.000510000000     0.783700000000     0.469400000000     0.403998   
C25      C      0.687860000000     0.014010000000     0.566070000000     0.405951   
C26      C      0.688000000000     0.096070000000     0.469220000000     0.405733   
C27      C      0.687880000000     0.013980000000     0.469260000000     0.405904   
C28      C      0.687980000000     0.096110000000     0.566030000000     0.405992   
C29      C      0.919030000000     0.327160000000     0.469200000000     0.40603    
C30      C      0.001100000000     0.327350000000     0.566040000000     0.403975   
C31      C      0.919000000000     0.327190000000     0.566010000000     0.405729   
C32      C      0.001120000000     0.327330000000     0.469230000000     0.404037   
C33      C      0.199550000000     0.352690000000     0.229390000000     0.406072   
C34      C      0.220540000000     0.258770000000     0.305780000000     0.405803   
C35      C      0.257020000000     0.295220000000     0.229400000000     0.405785   
C36      C      0.163080000000     0.316230000000     0.305770000000     0.405692   
C37      C      0.663070000000     0.294570000000     0.229500000000     0.405842   
C38      C      0.757000000000     0.315560000000     0.305880000000     0.405726   
C39      C      0.720530000000     0.352020000000     0.229500000000     0.40584    
C40      C      0.699530000000     0.258100000000     0.305880000000     0.405797   
C41      C      0.720470000000     0.352110000000     0.805680000000     0.405892   
C42      C      0.699470000000     0.258190000000     0.729300000000     0.405877   
C43      C      0.663010000000     0.294660000000     0.805680000000     0.405778   
C44      C      0.756940000000     0.315650000000     0.729300000000     0.405771   
C45      C      0.662590000000     0.815550000000     0.229430000000     0.405761   
C46      C      0.756520000000     0.794560000000     0.305810000000     0.405842   
C47      C      0.720060000000     0.758080000000     0.229440000000     0.405691   
C48      C      0.699050000000     0.852010000000     0.305800000000     0.405896   
C49      C      0.698970000000     0.852120000000     0.729630000000     0.405709   
C50      C      0.719970000000     0.758200000000     0.806010000000     0.405902   
C51      C      0.756430000000     0.794670000000     0.729640000000     0.406026   
C52      C      0.662500000000     0.815670000000     0.806010000000     0.405934   
C53      C      0.199050000000     0.758780000000     0.229730000000     0.405699   
C54      C      0.220040000000     0.852710000000     0.306110000000     0.405867   
C55      C      0.256500000000     0.816230000000     0.229730000000     0.405824   
C56      C      0.162580000000     0.795240000000     0.306110000000     0.405869   
C57      C      0.219990000000     0.852800000000     0.729530000000     0.405766   
C58      C      0.198980000000     0.758870000000     0.805910000000     0.405627   
C59      C      0.162520000000     0.795330000000     0.729530000000     0.405781   
C60      C      0.256440000000     0.816330000000     0.805910000000     0.405871   
C61      C      0.256920000000     0.295340000000     0.805980000000     0.405668   
C62      C      0.163000000000     0.316340000000     0.729590000000     0.405842   
C63      C      0.199450000000     0.352810000000     0.805970000000     0.405969   
C64      C      0.220460000000     0.258880000000     0.729600000000     0.405747   
C65      C      0.053830000000     0.300630000000     0.629050000000    -0.0861361  
C66      C      0.067240000000     0.326410000000     0.639500000000     0.0343398  
C67      C      0.057700000000     0.352650000000     0.625300000000    -0.0859876  
C68      C      0.035200000000     0.352670000000     0.601160000000     0.0697887  
C69      C      0.031730000000     0.301380000000     0.604550000000     0.0701115  
C70      C      0.091560000000     0.325620000000     0.664450000000     0.0343589  
C71      C      0.089690000000     0.308640000000     0.694190000000    -0.0863103  
C72      C      0.113500000000     0.306510000000     0.716260000000     0.0701416  
C73      C      0.140870000000     0.337860000000     0.680380000000     0.0700525  
C74      C      0.117320000000     0.340770000000     0.657980000000    -0.0858143  
C75      C      0.057760000000     0.352590000000     0.409980000000    -0.0859447  
C76      C      0.067300000000     0.326340000000     0.395810000000     0.0343354  
C77      C      0.053880000000     0.300570000000     0.406270000000    -0.0861967  
C78      C      0.031770000000     0.301340000000     0.430760000000     0.0702007  
C79      C      0.035250000000     0.352630000000     0.434110000000     0.0696748  
C80      C      0.091630000000     0.325540000000     0.370870000000     0.0344164  
C81      C      0.117390000000     0.340690000000     0.377350000000    -0.0859558  
C82      C      0.140940000000     0.337770000000     0.354960000000     0.0701762  
C83      C      0.113580000000     0.306410000000     0.319090000000     0.0701214  
C84      C      0.089770000000     0.308550000000     0.341140000000    -0.0863486  
C85      C      0.862290000000     0.352210000000     0.409960000000    -0.0859547  
C86      C      0.852830000000     0.325920000000     0.395810000000     0.0344008  
C87      C      0.866350000000     0.300200000000     0.406280000000    -0.0861034  
C88      C      0.888470000000     0.301050000000     0.430750000000     0.0703758  
C89      C      0.884820000000     0.352330000000     0.434070000000     0.0699583  
C90      C      0.828470000000     0.325020000000     0.370920000000     0.0344455  
C91      C      0.802690000000     0.340130000000     0.377400000000    -0.0858895  
C92      C      0.779130000000     0.337150000000     0.355050000000     0.0702153  
C93      C      0.806510000000     0.305800000000     0.319190000000     0.0701668  
C94      C      0.830340000000     0.308000000000     0.341210000000    -0.0862848  
C95      C      0.866300000000     0.300250000000     0.628920000000    -0.086092   
C96      C      0.852780000000     0.325980000000     0.639370000000     0.0343886  
C97      C      0.862250000000     0.352260000000     0.625210000000    -0.0859727  
C98      C      0.884780000000     0.352370000000     0.601110000000     0.0699943  
C99      C      0.888430000000     0.301090000000     0.604460000000     0.070332   
C100     C      0.828420000000     0.325100000000     0.664260000000     0.0344696  
C101     C      0.802640000000     0.340200000000     0.657770000000    -0.0859201  
C102     C      0.779080000000     0.337230000000     0.680120000000     0.0701556  
C103     C      0.806460000000     0.305890000000     0.716000000000     0.0702252  
C104     C      0.830290000000     0.308080000000     0.693980000000    -0.0863562  
C105     C      0.674930000000     0.212480000000     0.657770000000    -0.0858209  
C106     C      0.690040000000     0.186700000000     0.664270000000     0.0343845  
C107     C      0.707040000000     0.184840000000     0.693990000000    -0.0862679  
C108     C      0.709240000000     0.208660000000     0.716010000000     0.0701186  
C109     C      0.677890000000     0.236050000000     0.680120000000     0.0700552  
C110     C      0.689160000000     0.162340000000     0.639370000000     0.0344476  
C111     C      0.662890000000     0.152860000000     0.625210000000    -0.0860081  
C112     C      0.662790000000     0.130330000000     0.601110000000     0.0699453  
C113     C      0.714060000000     0.126700000000     0.604470000000     0.0704971  
C114     C      0.714900000000     0.148830000000     0.628930000000    -0.086276   
C115     C      0.662920000000     0.152790000000     0.409980000000    -0.0860544  
C116     C      0.689200000000     0.162270000000     0.395820000000     0.0344312  
C117     C      0.714930000000     0.148760000000     0.406280000000    -0.0861852  
C118     C      0.714090000000     0.126640000000     0.430760000000     0.0703826  
C119     C      0.662820000000     0.130270000000     0.434090000000     0.0700056  
C120     C      0.690080000000     0.186620000000     0.370930000000     0.0343418  
C121     C      0.707100000000     0.184750000000     0.341210000000    -0.0862182  
C122     C      0.709300000000     0.208580000000     0.319180000000     0.0700816  
C123     C      0.677940000000     0.235970000000     0.355050000000     0.0700449  
C124     C      0.674970000000     0.212400000000     0.377410000000    -0.0857912  
C125     C      0.674570000000     0.897700000000     0.377380000000    -0.0858583  
C126     C      0.689720000000     0.923470000000     0.370910000000     0.0343531  
C127     C      0.706710000000     0.925330000000     0.341180000000    -0.0862284  
C128     C      0.708860000000     0.901520000000     0.319120000000     0.0700978  
C129     C      0.677500000000     0.874150000000     0.355000000000     0.0701025  
C130     C      0.688900000000     0.947800000000     0.395840000000     0.034476   
C131     C      0.662650000000     0.957330000000     0.410010000000    -0.0859936  
C132     C      0.662600000000     0.979840000000     0.434140000000     0.0698475  
C133     C      0.713890000000     0.983340000000     0.430790000000     0.0704824  
C134     C      0.714670000000     0.961230000000     0.406300000000    -0.0862841  
C135     C      0.706650000000     0.925430000000     0.694230000000    -0.0863413  
C136     C      0.689660000000     0.923560000000     0.664490000000     0.0343914  
C137     C      0.674510000000     0.897800000000     0.658030000000    -0.0857991  
C138     C      0.677430000000     0.874250000000     0.680420000000     0.0700413  
C139     C      0.708790000000     0.901620000000     0.716290000000     0.0702193  
C140     C      0.688850000000     0.947880000000     0.639550000000     0.0344089  
C141     C      0.662610000000     0.957410000000     0.625350000000    -0.0859403  
C142     C      0.662570000000     0.979900000000     0.601210000000     0.0698807  
C143     C      0.713860000000     0.983400000000     0.604580000000     0.070372   
C144     C      0.714620000000     0.961300000000     0.629090000000    -0.0861431  
C145     C      0.089230000000     0.802810000000     0.341430000000    -0.0862685  
C146     C      0.091090000000     0.785800000000     0.371150000000     0.0343298  
C147     C      0.116870000000     0.770690000000     0.377630000000    -0.0857884  
C148     C      0.140440000000     0.773660000000     0.355280000000     0.0700632  
C149     C      0.113050000000     0.805010000000     0.319410000000     0.0700862  
C150     C      0.066730000000     0.784910000000     0.396040000000     0.0343901  
C151     C      0.053220000000     0.810640000000     0.406480000000    -0.0862159  
C152     C      0.031090000000     0.809800000000     0.430950000000     0.0702016  
C153     C      0.034740000000     0.758520000000     0.434300000000     0.0697232  
C154     C      0.057260000000     0.758630000000     0.410200000000    -0.0860161  
C155     C      0.057220000000     0.758690000000     0.625440000000    -0.0859733  
C156     C      0.066680000000     0.784980000000     0.639590000000     0.0343662  
C157     C      0.053170000000     0.810700000000     0.629130000000    -0.0862311  
C158     C      0.031050000000     0.809840000000     0.604650000000     0.0701805  
C159     C      0.034700000000     0.758560000000     0.601330000000     0.0697334  
C160     C      0.091040000000     0.785870000000     0.664480000000     0.0343851  
C161     C      0.116820000000     0.770760000000     0.658010000000    -0.0858582  
C162     C      0.140390000000     0.773740000000     0.680360000000     0.0700725  
C163     C      0.113000000000     0.805100000000     0.716220000000     0.0701012  
C164     C      0.089170000000     0.802890000000     0.694190000000    -0.0863276  
C165     C      0.829750000000     0.802340000000     0.694270000000    -0.0862872  
C166     C      0.827880000000     0.785350000000     0.664530000000     0.0344158  
C167     C      0.802130000000     0.770200000000     0.658060000000    -0.085825   
C168     C      0.778570000000     0.773120000000     0.680440000000     0.0700763  
C169     C      0.805940000000     0.804480000000     0.716320000000     0.0701671  
C170     C      0.852210000000     0.784550000000     0.639600000000     0.034439   
C171     C      0.865630000000     0.810320000000     0.629140000000    -0.0862247  
C172     C      0.887740000000     0.809550000000     0.604650000000     0.0704604  
C173     C      0.884270000000     0.758270000000     0.601300000000     0.0700332  
C174     C      0.861760000000     0.758300000000     0.625420000000    -0.0859615  
C175     C      0.865680000000     0.810260000000     0.406350000000    -0.0861631  
C176     C      0.852270000000     0.784490000000     0.395900000000     0.0344384  
C177     C      0.861810000000     0.758240000000     0.410100000000    -0.0859619  
C178     C      0.884310000000     0.758220000000     0.434240000000     0.0699866  
C179     C      0.887780000000     0.809510000000     0.430860000000     0.0703424  
C180     C      0.827950000000     0.785270000000     0.370960000000     0.0343957  
C181     C      0.829820000000     0.802250000000     0.341210000000    -0.086212   
C182     C      0.806020000000     0.804390000000     0.319150000000     0.0700818  
C183     C      0.778650000000     0.773030000000     0.355030000000     0.070189   
C184     C      0.802190000000     0.770120000000     0.377420000000    -0.0859078  
C185     C      0.204890000000     0.149590000000     0.406320000000    -0.0862357  
C186     C      0.230660000000     0.163010000000     0.395860000000     0.0344223  
C187     C      0.256910000000     0.153490000000     0.410060000000    -0.0860387  
C188     C      0.256940000000     0.130990000000     0.434200000000     0.0699847  
C189     C      0.205660000000     0.127500000000     0.430830000000     0.0703731  
C190     C      0.229850000000     0.187340000000     0.370920000000     0.0344054  
C191     C      0.212870000000     0.185460000000     0.341180000000    -0.0862836  
C192     C      0.210730000000     0.209270000000     0.319110000000     0.0700769  
C193     C      0.242080000000     0.236640000000     0.354990000000     0.070183   
C194     C      0.245000000000     0.213100000000     0.377380000000    -0.0859407  
C195     C      0.212800000000     0.185560000000     0.694230000000    -0.0863612  
C196     C      0.229800000000     0.187430000000     0.664500000000     0.0344435  
C197     C      0.244940000000     0.213190000000     0.658030000000    -0.0859185  
C198     C      0.242010000000     0.236740000000     0.680410000000     0.0701714  
C199     C      0.210650000000     0.209370000000     0.716280000000     0.0701417  
C200     C      0.230610000000     0.163100000000     0.639570000000     0.0343538  
C201     C      0.256860000000     0.153560000000     0.625390000000    -0.0859     
C202     C      0.256910000000     0.131050000000     0.601270000000     0.0699178  
C203     C      0.205620000000     0.127560000000     0.604620000000     0.0702919  
C204     C      0.204850000000     0.149670000000     0.629110000000    -0.0861443  
C205     C      0.204580000000     0.962130000000     0.629120000000    -0.0861952  
C206     C      0.230310000000     0.948630000000     0.639580000000     0.0344175  
C207     C      0.256590000000     0.958100000000     0.625430000000    -0.0859512  
C208     C      0.256700000000     0.980620000000     0.601310000000     0.0698999  
C209     C      0.205420000000     0.984250000000     0.604650000000     0.0703886  
C210     C      0.229430000000     0.924270000000     0.664480000000     0.0344162  
C211     C      0.212410000000     0.926140000000     0.694190000000    -0.0862935  
C212     C      0.210220000000     0.902320000000     0.716220000000     0.0701502  
C213     C      0.241570000000     0.874930000000     0.680350000000     0.0701165  
C214     C      0.244540000000     0.898490000000     0.658000000000    -0.0858845  
C215     C      0.204620000000     0.962060000000     0.406480000000    -0.086156   
C216     C      0.230350000000     0.948550000000     0.396030000000     0.0344044  
C217     C      0.256630000000     0.958030000000     0.410190000000    -0.0860303  
C218     C      0.256730000000     0.980560000000     0.434290000000     0.0699401  
C219     C      0.205450000000     0.984190000000     0.430940000000     0.0703391  
C220     C      0.229480000000     0.924200000000     0.371140000000     0.0344077  
C221     C      0.244590000000     0.898410000000     0.377640000000    -0.0859332  
C222     C      0.241620000000     0.874850000000     0.355280000000     0.0701926  
C223     C      0.210280000000     0.902230000000     0.319400000000     0.0701679  
C224     C      0.212470000000     0.926060000000     0.341420000000    -0.0863414  
C225     C      0.756900000000     0.457320000000     0.125250000000    -0.086011   
C226     C      0.730650000000     0.447790000000     0.139440000000     0.0344467  
C227     C      0.704880000000     0.461220000000     0.128990000000    -0.0862648  
C228     C      0.705660000000     0.483330000000     0.104500000000     0.0703965  
C229     C      0.756940000000     0.479830000000     0.101120000000     0.0699811  
C230     C      0.729850000000     0.423460000000     0.164370000000     0.0343746  
C231     C      0.744990000000     0.397700000000     0.157910000000    -0.085841   
C232     C      0.742070000000     0.374150000000     0.180290000000     0.0701115  
C233     C      0.710720000000     0.401530000000     0.216170000000     0.0701181  
C234     C      0.712860000000     0.425330000000     0.194110000000    -0.0862337  
C235     C      0.756640000000     0.652770000000     0.125310000000    -0.0859522  
C236     C      0.730360000000     0.662250000000     0.139480000000     0.0344259  
C237     C      0.704630000000     0.648750000000     0.129030000000    -0.0862517  
C238     C      0.705460000000     0.626640000000     0.104550000000     0.0704549  
C239     C      0.756740000000     0.630250000000     0.101200000000     0.0698586  
C240     C      0.729500000000     0.686600000000     0.164390000000     0.0343823  
C241     C      0.744610000000     0.712380000000     0.157900000000    -0.0858506  
C242     C      0.741640000000     0.735940000000     0.180260000000     0.0701202  
C243     C      0.710300000000     0.708560000000     0.216140000000     0.0701611  
C244     C      0.712490000000     0.684740000000     0.194110000000    -0.0862674  
C245     C      0.704570000000     0.648840000000     0.906390000000    -0.0862707  
C246     C      0.730300000000     0.662350000000     0.895930000000     0.0344238  
C247     C      0.756590000000     0.652870000000     0.910080000000    -0.0859826  
C248     C      0.756700000000     0.630330000000     0.934170000000     0.0699398  
C249     C      0.705420000000     0.626710000000     0.930840000000     0.0704622  
C250     C      0.729420000000     0.686710000000     0.871050000000     0.0344105  
C251     C      0.712410000000     0.684850000000     0.841330000000    -0.0863115  
C252     C      0.710210000000     0.708680000000     0.819310000000     0.0701782  
C253     C      0.741550000000     0.736060000000     0.855180000000     0.0701793  
C254     C      0.744530000000     0.712490000000     0.877530000000    -0.0858603  
C255     C      0.744950000000     0.397790000000     0.877260000000    -0.0859027  
C256     C      0.729800000000     0.423550000000     0.870800000000     0.0344501  
C257     C      0.712800000000     0.425430000000     0.841070000000    -0.086329   
C258     C      0.710660000000     0.401620000000     0.819010000000     0.07018    
C259     C      0.742020000000     0.374240000000     0.854870000000     0.0701587  
C260     C      0.730610000000     0.447880000000     0.895730000000     0.0343775  
C261     C      0.756860000000     0.457400000000     0.909920000000    -0.0858953  
C262     C      0.756910000000     0.479900000000     0.934060000000     0.0699392  
C263     C      0.705620000000     0.483410000000     0.930710000000     0.0703398  
C264     C      0.704850000000     0.461310000000     0.906210000000    -0.0861222  
C265     C      0.616890000000     0.840120000000     0.157910000000    -0.0858564  
C266     C      0.591110000000     0.825020000000     0.164400000000     0.0344224  
C267     C      0.589240000000     0.808000000000     0.194110000000    -0.0863244  
C268     C      0.613070000000     0.805790000000     0.216130000000     0.0701475  
C269     C      0.640460000000     0.837140000000     0.180260000000     0.0700823  
C270     C      0.566750000000     0.825920000000     0.139510000000     0.034383   
C271     C      0.557270000000     0.852200000000     0.125370000000    -0.0859698  
C272     C      0.534740000000     0.852330000000     0.101270000000     0.069939   
C273     C      0.531100000000     0.801050000000     0.104590000000     0.0703673  
C274     C      0.553230000000     0.800190000000     0.129050000000    -0.0861787  
C275     C      0.365690000000     0.800570000000     0.129200000000    -0.0862192  
C276     C      0.352270000000     0.826340000000     0.139670000000     0.0343915  
C277     C      0.361810000000     0.852590000000     0.125490000000    -0.0859405  
C278     C      0.384310000000     0.852630000000     0.101360000000     0.0698801  
C279     C      0.387790000000     0.801340000000     0.104700000000     0.0703853  
C280     C      0.327950000000     0.825540000000     0.164610000000     0.0344037  
C281     C      0.302190000000     0.840690000000     0.158140000000    -0.0858794  
C282     C      0.278640000000     0.837770000000     0.180530000000     0.0700735  
C283     C      0.306010000000     0.806410000000     0.216400000000     0.0701629  
C284     C      0.329810000000     0.808550000000     0.194340000000    -0.0862806  
C285     C      0.329750000000     0.808630000000     0.841300000000    -0.086327   
C286     C      0.327880000000     0.825610000000     0.871040000000     0.0344133  
C287     C      0.302120000000     0.840770000000     0.877510000000    -0.0858595  
C288     C      0.278570000000     0.837860000000     0.855120000000     0.0700685  
C289     C      0.305940000000     0.806500000000     0.819240000000     0.0702213  
C290     C      0.352210000000     0.826410000000     0.895980000000     0.0344124  
C291     C      0.365630000000     0.800630000000     0.906420000000    -0.0861478  
C292     C      0.387740000000     0.801380000000     0.930920000000     0.0703383  
C293     C      0.384260000000     0.852670000000     0.934300000000     0.0699548  
C294     C      0.361750000000     0.852650000000     0.910170000000    -0.0859793  
C295     C      0.553160000000     0.800260000000     0.906410000000    -0.0862585  
C296     C      0.566660000000     0.825990000000     0.895960000000     0.0344573  
C297     C      0.557200000000     0.852270000000     0.910120000000    -0.0859546  
C298     C      0.534680000000     0.852380000000     0.934240000000     0.0698918  
C299     C      0.531040000000     0.801100000000     0.930880000000     0.0704272  
C300     C      0.591020000000     0.825110000000     0.871060000000     0.0344032  
C301     C      0.616800000000     0.840220000000     0.877540000000    -0.085893   
C302     C      0.640360000000     0.837250000000     0.855180000000     0.0701952  
C303     C      0.612980000000     0.805900000000     0.819310000000     0.0701072  
C304     C      0.589150000000     0.808100000000     0.841340000000    -0.0862873  
C305     C      0.162650000000     0.653490000000     0.125490000000    -0.0860386  
C306     C      0.188900000000     0.663010000000     0.139670000000     0.0344344  
C307     C      0.214670000000     0.649590000000     0.129200000000    -0.0862314  
C308     C      0.213890000000     0.627490000000     0.104690000000     0.0704077  
C309     C      0.162610000000     0.630990000000     0.101350000000     0.069932   
C310     C      0.189720000000     0.687340000000     0.164610000000     0.0343721  
C311     C      0.174570000000     0.713100000000     0.158150000000    -0.0858902  
C312     C      0.177500000000     0.736650000000     0.180530000000     0.0701386  
C313     C      0.208860000000     0.709280000000     0.216400000000     0.0700879  
C314     C      0.206710000000     0.685470000000     0.194340000000    -0.0862447  
C315     C      0.174990000000     0.398400000000     0.157870000000    -0.0858891  
C316     C      0.190090000000     0.424180000000     0.164360000000     0.0343769  
C317     C      0.207110000000     0.426040000000     0.194080000000    -0.0862953  
C318     C      0.209300000000     0.402220000000     0.216100000000     0.0700899  
C319     C      0.177960000000     0.374830000000     0.180220000000     0.0701384  
C320     C      0.189210000000     0.448540000000     0.139470000000     0.0343901  
C321     C      0.214940000000     0.462050000000     0.129020000000    -0.0861558  
C322     C      0.214100000000     0.484180000000     0.104560000000     0.0703028  
C323     C      0.162820000000     0.480560000000     0.101230000000     0.0699748  
C324     C      0.162930000000     0.458030000000     0.125320000000    -0.0860523  
C325     C      0.174900000000     0.398520000000     0.877500000000    -0.0858536  
C326     C      0.190020000000     0.424290000000     0.871020000000     0.0344191  
C327     C      0.207030000000     0.426160000000     0.841300000000    -0.0863731  
C328     C      0.209210000000     0.402330000000     0.819270000000     0.070235   
C329     C      0.177870000000     0.374950000000     0.855150000000     0.0700573  
C330     C      0.189150000000     0.448650000000     0.895920000000     0.0344203  
C331     C      0.162870000000     0.458120000000     0.910090000000    -0.0860047  
C332     C      0.162780000000     0.480640000000     0.934210000000     0.0699172  
C333     C      0.214050000000     0.484260000000     0.930850000000     0.0704185  
C334     C      0.214880000000     0.462140000000     0.906370000000    -0.0861951  
C335     C      0.174520000000     0.713200000000     0.877500000000    -0.0858595  
C336     C      0.189670000000     0.687430000000     0.871030000000     0.034369   
C337     C      0.206650000000     0.685560000000     0.841290000000    -0.0863242  
C338     C      0.208800000000     0.709370000000     0.819240000000     0.070174   
C339     C      0.177440000000     0.736750000000     0.855110000000     0.070065   
C340     C      0.188860000000     0.663100000000     0.895970000000     0.0344546  
C341     C      0.214630000000     0.649670000000     0.906410000000    -0.0862319  
C342     C      0.213860000000     0.627560000000     0.930910000000     0.0704058  
C343     C      0.162570000000     0.631070000000     0.934280000000     0.0698825  
C344     C      0.162610000000     0.653580000000     0.910160000000    -0.0860405  
C345     C      0.330360000000     0.302790000000     0.194070000000    -0.0861994  
C346     C      0.328500000000     0.285780000000     0.164350000000     0.0343187  
C347     C      0.302720000000     0.270670000000     0.157870000000    -0.0857422  
C348     C      0.279150000000     0.273640000000     0.180220000000     0.0700223  
C349     C      0.306540000000     0.304990000000     0.216100000000     0.0700695  
C350     C      0.352850000000     0.284900000000     0.139450000000     0.0344363  
C351     C      0.366360000000     0.310630000000     0.129000000000    -0.0862085  
C352     C      0.388470000000     0.309790000000     0.104520000000     0.0703768  
C353     C      0.384840000000     0.258510000000     0.101170000000     0.0699023  
C354     C      0.362320000000     0.258620000000     0.125280000000    -0.0860222  
C355     C      0.553890000000     0.310270000000     0.128980000000    -0.0862388  
C356     C      0.567300000000     0.284490000000     0.139430000000     0.0344385  
C357     C      0.557770000000     0.258250000000     0.125230000000    -0.0860143  
C358     C      0.535260000000     0.258230000000     0.101100000000     0.069944   
C359     C      0.531780000000     0.309510000000     0.104490000000     0.070409   
C360     C      0.591630000000     0.285280000000     0.164370000000     0.0343978  
C361     C      0.617390000000     0.270130000000     0.157900000000    -0.0858591  
C362     C      0.640940000000     0.273040000000     0.180290000000     0.0701364  
C363     C      0.613570000000     0.304390000000     0.216170000000     0.0701491  
C364     C      0.589760000000     0.302260000000     0.194110000000    -0.0863161  
C365     C      0.553820000000     0.310320000000     0.906200000000    -0.0861675  
C366     C      0.567240000000     0.284550000000     0.895730000000     0.0344294  
C367     C      0.557710000000     0.258300000000     0.909910000000    -0.0860188  
C368     C      0.535200000000     0.258270000000     0.934050000000     0.0699304  
C369     C      0.531720000000     0.309560000000     0.930700000000     0.0704065  
C370     C      0.591570000000     0.285350000000     0.870800000000     0.0343836  
C371     C      0.589700000000     0.302350000000     0.841060000000    -0.0862728  
C372     C      0.613510000000     0.304490000000     0.819000000000     0.0701094  
C373     C      0.640880000000     0.273120000000     0.854870000000     0.07017    
C374     C      0.617330000000     0.270200000000     0.877260000000    -0.0858995  
C375     C      0.302620000000     0.270770000000     0.877490000000    -0.0858767  
C376     C      0.328410000000     0.285880000000     0.871010000000     0.0344006  
C377     C      0.330270000000     0.302900000000     0.841300000000    -0.086349   
C378     C      0.306440000000     0.305100000000     0.819280000000     0.0701784  
C379     C      0.279060000000     0.273750000000     0.855150000000     0.0701331  
C380     C      0.352770000000     0.284980000000     0.895890000000     0.0344201  
C381     C      0.362240000000     0.258690000000     0.910040000000    -0.0860188  
C382     C      0.384770000000     0.258570000000     0.934130000000     0.0700119  
C383     C      0.388420000000     0.309840000000     0.930810000000     0.0703779  
C384     C      0.366290000000     0.310700000000     0.906350000000    -0.0862193  
Cu1      Cu     0.460020000000     0.256760000000     0.017610000000     0.840362   
Cu2      Cu     0.460120000000     0.310320000000     0.017630000000     0.852694   
Cu3      Cu     0.161060000000     0.555820000000     0.017770000000     0.840586   
Cu4      Cu     0.214620000000     0.555890000000     0.017750000000     0.852409   
Cu5      Cu     0.459400000000     0.800580000000     0.017770000000     0.852664   
Cu6      Cu     0.459500000000     0.854140000000     0.017800000000     0.840502   
Cu7      Cu     0.704900000000     0.555000000000     0.017650000000     0.852657   
Cu8      Cu     0.758460000000     0.555070000000     0.017630000000     0.84044    
Cu9      Cu     0.204900000000     0.055890000000     0.517760000000     0.852899   
Cu10     Cu     0.258460000000     0.055810000000     0.517770000000     0.840613   
Cu11     Cu     0.959500000000     0.756760000000     0.517800000000     0.840647   
Cu12     Cu     0.959400000000     0.810320000000     0.517780000000     0.852667   
Cu13     Cu     0.661060000000     0.055080000000     0.517640000000     0.8408     
Cu14     Cu     0.714620000000     0.055000000000     0.517650000000     0.852706   
Cu15     Cu     0.960120000000     0.300580000000     0.517630000000     0.853018   
Cu16     Cu     0.960010000000     0.354140000000     0.517610000000     0.840597   
Cu17     Cu     0.224850000000     0.320540000000     0.287340000000     0.846749   
Cu18     Cu     0.195250000000     0.290920000000     0.247810000000     0.846596   
Cu19     Cu     0.695220000000     0.319870000000     0.287460000000     0.846618   
Cu20     Cu     0.724840000000     0.290250000000     0.247930000000     0.846705   
Cu21     Cu     0.695170000000     0.319960000000     0.747720000000     0.846687   
Cu22     Cu     0.724780000000     0.290340000000     0.787250000000     0.846735   
Cu23     Cu     0.724360000000     0.819850000000     0.247850000000     0.846601   
Cu24     Cu     0.694750000000     0.790240000000     0.287380000000     0.846684   
Cu25     Cu     0.724270000000     0.819970000000     0.787590000000     0.846967   
Cu26     Cu     0.694660000000     0.790350000000     0.748060000000     0.846497   
Cu27     Cu     0.194730000000     0.820550000000     0.248160000000     0.846688   
Cu28     Cu     0.224350000000     0.790940000000     0.287690000000     0.846702   
Cu29     Cu     0.224290000000     0.791030000000     0.747950000000     0.846726   
Cu30     Cu     0.194670000000     0.820640000000     0.787480000000     0.846546   
Cu31     Cu     0.224760000000     0.320650000000     0.748020000000     0.846424   
Cu32     Cu     0.195150000000     0.291040000000     0.787550000000     0.846649   
H1       H      0.067450000000     0.373060000000     0.632930000000     0.051503   
H2       H      0.028470000000     0.373440000000     0.590760000000     0.0262584  
H3       H      0.022190000000     0.280840000000     0.596980000000     0.0263049  
H4       H      0.060800000000     0.279860000000     0.639200000000     0.0516689  
H5       H      0.069980000000     0.296880000000     0.700280000000     0.0514278  
H6       H      0.111190000000     0.292820000000     0.738770000000     0.0263193  
H7       H      0.160630000000     0.349460000000     0.674020000000     0.0265348  
H8       H      0.119630000000     0.354050000000     0.635150000000     0.0517359  
H9       H      0.060850000000     0.279800000000     0.396130000000     0.051692   
H10      H      0.022220000000     0.280800000000     0.438330000000     0.0262897  
H11      H      0.028510000000     0.373410000000     0.444500000000     0.0262929  
H12      H      0.067510000000     0.373000000000     0.402350000000     0.0514886  
H13      H      0.119690000000     0.353970000000     0.400170000000     0.0517948  
H14      H      0.160710000000     0.349370000000     0.361330000000     0.0265147  
H15      H      0.111280000000     0.292720000000     0.296580000000     0.0263194  
H16      H      0.070060000000     0.296790000000     0.335040000000     0.0514254  
H17      H      0.859450000000     0.279390000000     0.396170000000     0.0517604  
H18      H      0.898100000000     0.280550000000     0.438330000000     0.0265192  
H19      H      0.891480000000     0.373130000000     0.444440000000     0.0264746  
H20      H      0.852470000000     0.372580000000     0.402320000000     0.0516234  
H21      H      0.800380000000     0.353440000000     0.400210000000     0.0517848  
H22      H      0.759350000000     0.348730000000     0.361410000000     0.0265362  
H23      H      0.808820000000     0.292090000000     0.296690000000     0.0264149  
H24      H      0.850070000000     0.296270000000     0.335110000000     0.0515604  
H25      H      0.852420000000     0.372630000000     0.632840000000     0.0516226  
H26      H      0.891450000000     0.373170000000     0.590730000000     0.0264688  
H27      H      0.898060000000     0.280580000000     0.596890000000     0.0265446  
H28      H      0.859390000000     0.279450000000     0.639040000000     0.0517682  
H29      H      0.800340000000     0.353500000000     0.634960000000     0.0518072  
H30      H      0.759300000000     0.348800000000     0.673750000000     0.0265408  
H31      H      0.808770000000     0.292180000000     0.738500000000     0.0264015  
H32      H      0.850010000000     0.296350000000     0.700080000000     0.0516059  
H33      H      0.718770000000     0.165110000000     0.700090000000     0.0515098  
H34      H      0.722940000000     0.206360000000     0.738510000000     0.0263995  
H35      H      0.666320000000     0.255830000000     0.673750000000     0.0265568  
H36      H      0.661630000000     0.214780000000     0.634960000000     0.0517689  
H37      H      0.642510000000     0.162680000000     0.632840000000     0.0515711  
H38      H      0.641990000000     0.123650000000     0.590730000000     0.0264114  
H39      H      0.734580000000     0.117080000000     0.596900000000     0.0264476  
H40      H      0.735690000000     0.155750000000     0.639050000000     0.0518036  
H41      H      0.735730000000     0.155670000000     0.396170000000     0.0517729  
H42      H      0.734600000000     0.117020000000     0.438340000000     0.0264775  
H43      H      0.642020000000     0.123600000000     0.444470000000     0.0264013  
H44      H      0.642550000000     0.162610000000     0.402340000000     0.0516024  
H45      H      0.718840000000     0.165030000000     0.335110000000     0.0515036  
H46      H      0.723000000000     0.206270000000     0.296690000000     0.0263924  
H47      H      0.666370000000     0.255740000000     0.361420000000     0.0265445  
H48      H      0.661670000000     0.214710000000     0.400220000000     0.0517611  
H49      H      0.718470000000     0.945040000000     0.335080000000     0.0515117  
H50      H      0.722560000000     0.903820000000     0.296620000000     0.0264099  
H51      H      0.665910000000     0.854380000000     0.361360000000     0.0265476  
H52      H      0.661290000000     0.895400000000     0.400200000000     0.0517994  
H53      H      0.642250000000     0.947570000000     0.402380000000     0.0515984  
H54      H      0.641820000000     0.986570000000     0.444530000000     0.026477   
H55      H      0.734430000000     0.992900000000     0.438360000000     0.0264839  
H56      H      0.735440000000     0.954270000000     0.396170000000     0.051834   
H57      H      0.661230000000     0.895490000000     0.635200000000     0.0517612  
H58      H      0.665830000000     0.854480000000     0.674070000000     0.0265704  
H59      H      0.722480000000     0.903930000000     0.738800000000     0.0263806  
H60      H      0.718400000000     0.945140000000     0.700310000000     0.0515715  
H61      H      0.642200000000     0.947650000000     0.632980000000     0.0515599  
H62      H      0.641800000000     0.986620000000     0.590800000000     0.0264535  
H63      H      0.734400000000     0.992950000000     0.597010000000     0.0264877  
H64      H      0.735400000000     0.954350000000     0.639230000000     0.0517692  
H65      H      0.119180000000     0.757390000000     0.400450000000     0.0517114  
H66      H      0.160220000000     0.762090000000     0.361650000000     0.0265405  
H67      H      0.110750000000     0.818710000000     0.296910000000     0.026331   
H68      H      0.069500000000     0.814540000000     0.335320000000     0.0513999  
H69      H      0.060120000000     0.831440000000     0.396370000000     0.0516969  
H70      H      0.021460000000     0.830310000000     0.438510000000     0.0262919  
H71      H      0.028070000000     0.737720000000     0.444680000000     0.0262821  
H72      H      0.067090000000     0.738260000000     0.402570000000     0.0515158  
H73      H      0.060070000000     0.831500000000     0.639230000000     0.0517111  
H74      H      0.021420000000     0.830350000000     0.597070000000     0.0263059  
H75      H      0.028040000000     0.737760000000     0.590960000000     0.0262733  
H76      H      0.067050000000     0.738320000000     0.633080000000     0.0514973  
H77      H      0.119130000000     0.757460000000     0.635200000000     0.0517498  
H78      H      0.160170000000     0.762160000000     0.673990000000     0.0265377  
H79      H      0.110690000000     0.818810000000     0.738710000000     0.0263296  
H80      H      0.069450000000     0.814620000000     0.700290000000     0.0514492  
H81      H      0.799830000000     0.756920000000     0.635230000000     0.051782   
H82      H      0.758810000000     0.761530000000     0.674080000000     0.0265506  
H83      H      0.808240000000     0.818180000000     0.738830000000     0.0264167  
H84      H      0.849460000000     0.814100000000     0.700360000000     0.0515799  
H85      H      0.858660000000     0.831090000000     0.639270000000     0.0518321  
H86      H      0.897290000000     0.830100000000     0.597080000000     0.0265153  
H87      H      0.891000000000     0.737490000000     0.590910000000     0.0264622  
H88      H      0.852000000000     0.737890000000     0.633060000000     0.0516001  
H89      H      0.852060000000     0.737830000000     0.402470000000     0.0516168  
H90      H      0.891040000000     0.737450000000     0.444650000000     0.0264742  
H91      H      0.897330000000     0.830050000000     0.438430000000     0.0265382  
H92      H      0.858720000000     0.831030000000     0.396210000000     0.0518112  
H93      H      0.849530000000     0.814020000000     0.335130000000     0.0515491  
H94      H      0.808320000000     0.818070000000     0.296640000000     0.0264344  
H95      H      0.758880000000     0.761430000000     0.361380000000     0.0265374  
H96      H      0.799890000000     0.756850000000     0.400250000000     0.0518177  
H97      H      0.277310000000     0.163250000000     0.402420000000     0.0515933  
H98      H      0.277720000000     0.124270000000     0.444600000000     0.0264076  
H99      H      0.185120000000     0.117940000000     0.438400000000     0.026425   
H100     H      0.184120000000     0.156550000000     0.396170000000     0.0517375  
H101     H      0.201110000000     0.165750000000     0.335100000000     0.0514798  
H102     H      0.197040000000     0.206960000000     0.296610000000     0.0263497  
H103     H      0.253680000000     0.256410000000     0.361340000000     0.0265242  
H104     H      0.258280000000     0.215410000000     0.400200000000     0.0518093  
H105     H      0.258230000000     0.215490000000     0.635210000000     0.0517921  
H106     H      0.253610000000     0.256510000000     0.674050000000     0.0265349  
H107     H      0.196960000000     0.207070000000     0.738790000000     0.0263558  
H108     H      0.201050000000     0.165850000000     0.700320000000     0.0515155  
H109     H      0.277270000000     0.163330000000     0.633030000000     0.0515202  
H110     H      0.277690000000     0.124330000000     0.590880000000     0.026414   
H111     H      0.185090000000     0.117990000000     0.597040000000     0.0264408  
H112     H      0.184070000000     0.156630000000     0.639240000000     0.0517102  
H113     H      0.276970000000     0.948280000000     0.633060000000     0.0515673  
H114     H      0.277500000000     0.987290000000     0.590940000000     0.0264381  
H115     H      0.184910000000     0.993870000000     0.597070000000     0.0264426  
H116     H      0.183780000000     0.955220000000     0.639240000000     0.0517281  
H117     H      0.200680000000     0.945870000000     0.700300000000     0.0514817  
H118     H      0.196510000000     0.904630000000     0.738720000000     0.0263577  
H119     H      0.253150000000     0.855150000000     0.673990000000     0.0265465  
H120     H      0.257840000000     0.896180000000     0.635190000000     0.0517861  
H121     H      0.277000000000     0.948210000000     0.402570000000     0.0516191  
H122     H      0.277520000000     0.987240000000     0.444670000000     0.0264437  
H123     H      0.184940000000     0.993810000000     0.438500000000     0.0264471  
H124     H      0.183820000000     0.955150000000     0.396360000000     0.0517146  
H125     H      0.257880000000     0.896110000000     0.400450000000     0.051817   
H126     H      0.253190000000     0.855070000000     0.361660000000     0.0265243  
H127     H      0.196580000000     0.904540000000     0.296900000000     0.0263319  
H128     H      0.200740000000     0.945780000000     0.335310000000     0.0515127  
H129     H      0.684110000000     0.454270000000     0.139130000000     0.0517917  
H130     H      0.685120000000     0.492900000000     0.096940000000     0.0264534  
H131     H      0.777720000000     0.486550000000     0.090730000000     0.0264355  
H132     H      0.777300000000     0.447550000000     0.132880000000     0.0516186  
H133     H      0.758270000000     0.395390000000     0.135080000000     0.0517824  
H134     H      0.753670000000     0.354380000000     0.173930000000     0.0265616  
H135     H      0.697030000000     0.403840000000     0.238680000000     0.0263839  
H136     H      0.701100000000     0.445050000000     0.200200000000     0.0514837  
H137     H      0.683840000000     0.655670000000     0.139160000000     0.0517726  
H138     H      0.684950000000     0.617030000000     0.096980000000     0.0264313  
H139     H      0.777530000000     0.623580000000     0.090810000000     0.0264564  
H140     H      0.777020000000     0.662580000000     0.132940000000     0.0516001  
H141     H      0.757900000000     0.714680000000     0.135080000000     0.0517948  
H142     H      0.753220000000     0.755720000000     0.173890000000     0.0265804  
H143     H      0.696600000000     0.706250000000     0.238640000000     0.0263784  
H144     H      0.700760000000     0.665010000000     0.200210000000     0.051497   
H145     H      0.776960000000     0.662690000000     0.902450000000     0.051641   
H146     H      0.777500000000     0.623650000000     0.944540000000     0.0264786  
H147     H      0.684910000000     0.617090000000     0.938410000000     0.026454   
H148     H      0.683780000000     0.655760000000     0.896280000000     0.0518091  
H149     H      0.700680000000     0.665130000000     0.835220000000     0.0515287  
H150     H      0.696510000000     0.706370000000     0.796810000000     0.0263694  
H151     H      0.753130000000     0.755840000000     0.861560000000     0.0265633  
H152     H      0.757820000000     0.714790000000     0.900350000000     0.0518207  
H153     H      0.701040000000     0.445140000000     0.834980000000     0.0515316  
H154     H      0.696960000000     0.403930000000     0.796500000000     0.0263707  
H155     H      0.753620000000     0.354470000000     0.861220000000     0.0265687  
H156     H      0.758230000000     0.395480000000     0.900080000000     0.0518476  
H157     H      0.777270000000     0.447640000000     0.902270000000     0.0515838  
H158     H      0.777690000000     0.486620000000     0.944450000000     0.0264764  
H159     H      0.685090000000     0.492970000000     0.938290000000     0.0264737  
H160     H      0.684070000000     0.454360000000     0.896070000000     0.0517456  
H161     H      0.569520000000     0.796270000000     0.200210000000     0.0515276  
H162     H      0.610770000000     0.792080000000     0.238620000000     0.0263656  
H163     H      0.660230000000     0.848710000000     0.173890000000     0.0265466  
H164     H      0.619190000000     0.853420000000     0.135100000000     0.0517778  
H165     H      0.567100000000     0.872570000000     0.133010000000     0.051566   
H166     H      0.528070000000     0.873130000000     0.090910000000     0.0264027  
H167     H      0.521470000000     0.780550000000     0.097020000000     0.0264396  
H168     H      0.560140000000     0.779390000000     0.139160000000     0.0517514  
H169     H      0.352050000000     0.873000000000     0.133130000000     0.051546   
H170     H      0.391030000000     0.873400000000     0.090960000000     0.0264183  
H171     H      0.397340000000     0.780800000000     0.097120000000     0.0264454  
H172     H      0.358730000000     0.779800000000     0.139340000000     0.0517731  
H173     H      0.299880000000     0.853970000000     0.135320000000     0.0517821  
H174     H      0.258870000000     0.849370000000     0.174180000000     0.0265419  
H175     H      0.308310000000     0.792720000000     0.238910000000     0.0263777  
H176     H      0.349530000000     0.796790000000     0.200430000000     0.0514904  
H177     H      0.299820000000     0.854040000000     0.900340000000     0.0518036  
H178     H      0.258810000000     0.849450000000     0.861480000000     0.0265373  
H179     H      0.308250000000     0.792810000000     0.796730000000     0.0263538  
H180     H      0.349460000000     0.796870000000     0.835200000000     0.0515257  
H181     H      0.358660000000     0.779860000000     0.896280000000     0.0517637  
H182     H      0.397290000000     0.780840000000     0.938470000000     0.0264758  
H183     H      0.390990000000     0.873440000000     0.944700000000     0.0264333  
H184     H      0.351990000000     0.873060000000     0.902550000000     0.0515865  
H185     H      0.567020000000     0.872650000000     0.902490000000     0.0515732  
H186     H      0.528010000000     0.873180000000     0.944620000000     0.026453   
H187     H      0.521420000000     0.780590000000     0.938450000000     0.0264602  
H188     H      0.560070000000     0.779470000000     0.896280000000     0.0517955  
H189     H      0.619100000000     0.853520000000     0.900350000000     0.0518121  
H190     H      0.660140000000     0.848830000000     0.861550000000     0.0265526  
H191     H      0.610670000000     0.792200000000     0.796810000000     0.026382   
H192     H      0.569430000000     0.796370000000     0.835240000000     0.0515184  
H193     H      0.235450000000     0.656540000000     0.139330000000     0.0517626  
H194     H      0.234430000000     0.617930000000     0.097110000000     0.0264405  
H195     H      0.141830000000     0.624280000000     0.090960000000     0.0263542  
H196     H      0.142250000000     0.663260000000     0.133130000000     0.0515296  
H197     H      0.161280000000     0.715410000000     0.135330000000     0.0517345  
H198     H      0.165900000000     0.756420000000     0.174180000000     0.0264906  
H199     H      0.222560000000     0.706970000000     0.238900000000     0.0263776  
H200     H      0.218470000000     0.665750000000     0.200420000000     0.0514751  
H201     H      0.218830000000     0.445770000000     0.200180000000     0.0515035  
H202     H      0.223010000000     0.404520000000     0.238600000000     0.0263883  
H203     H      0.166390000000     0.355060000000     0.173850000000     0.0264834  
H204     H      0.161690000000     0.396100000000     0.135060000000     0.0517381  
H205     H      0.235740000000     0.455130000000     0.139130000000     0.0517362  
H206     H      0.234610000000     0.493800000000     0.096990000000     0.0264636  
H207     H      0.142020000000     0.487240000000     0.090860000000     0.0263465  
H208     H      0.142560000000     0.448210000000     0.132960000000     0.0515399  
H209     H      0.218760000000     0.445880000000     0.835200000000     0.0515337  
H210     H      0.222920000000     0.404640000000     0.796770000000     0.0263464  
H211     H      0.166290000000     0.355180000000     0.861510000000     0.0265233  
H212     H      0.161610000000     0.396210000000     0.900320000000     0.0517509  
H213     H      0.142490000000     0.448310000000     0.902460000000     0.0515409  
H214     H      0.141980000000     0.487320000000     0.944600000000     0.0264087  
H215     H      0.234570000000     0.493870000000     0.938420000000     0.0264711  
H216     H      0.235680000000     0.455220000000     0.896250000000     0.0517538  
H217     H      0.218410000000     0.665850000000     0.835200000000     0.0515149  
H218     H      0.222490000000     0.707060000000     0.796730000000     0.0263625  
H219     H      0.165850000000     0.756510000000     0.861470000000     0.0265163  
H220     H      0.161240000000     0.715500000000     0.900320000000     0.0517761  
H221     H      0.235400000000     0.656630000000     0.896270000000     0.0517885  
H222     H      0.234400000000     0.618000000000     0.938470000000     0.0264626  
H223     H      0.141800000000     0.624340000000     0.944680000000     0.0264048  
H224     H      0.142210000000     0.663340000000     0.902530000000     0.0515644  
H225     H      0.300410000000     0.257370000000     0.135050000000     0.0517068  
H226     H      0.259380000000     0.262070000000     0.173860000000     0.0265363  
H227     H      0.308840000000     0.318690000000     0.238590000000     0.0263835  
H228     H      0.350090000000     0.314520000000     0.200170000000     0.0514735  
H229     H      0.359450000000     0.331430000000     0.139120000000     0.0517505  
H230     H      0.398090000000     0.330300000000     0.096950000000     0.0264474  
H231     H      0.391510000000     0.237720000000     0.090780000000     0.0264132  
H232     H      0.352500000000     0.238250000000     0.132910000000     0.0515856  
H233     H      0.567530000000     0.237840000000     0.132850000000     0.051573   
H234     H      0.528530000000     0.237450000000     0.090700000000     0.0264174  
H235     H      0.522220000000     0.330060000000     0.096930000000     0.0264429  
H236     H      0.560850000000     0.331040000000     0.139130000000     0.0517669  
H237     H      0.619700000000     0.256850000000     0.135070000000     0.0517648  
H238     H      0.660710000000     0.261440000000     0.173930000000     0.0265363  
H239     H      0.611260000000     0.318080000000     0.238680000000     0.0263726  
H240     H      0.570050000000     0.314020000000     0.200200000000     0.0515196  
H241     H      0.567460000000     0.237900000000     0.902270000000     0.0516184  
H242     H      0.528480000000     0.237490000000     0.944440000000     0.026439   
H243     H      0.522170000000     0.330100000000     0.938280000000     0.0264584  
H244     H      0.560790000000     0.331100000000     0.896070000000     0.0517493  
H245     H      0.569990000000     0.314110000000     0.834980000000     0.0515187  
H246     H      0.611200000000     0.318180000000     0.796500000000     0.0263776  
H247     H      0.660650000000     0.261520000000     0.861230000000     0.0265427  
H248     H      0.619630000000     0.256920000000     0.900080000000     0.0518255  
H249     H      0.349990000000     0.314620000000     0.835190000000     0.051545   
H250     H      0.308750000000     0.318810000000     0.796780000000     0.0263714  
H251     H      0.259280000000     0.262180000000     0.861510000000     0.026539   
H252     H      0.300320000000     0.257470000000     0.900300000000     0.0517898  
H253     H      0.352410000000     0.238320000000     0.902400000000     0.0515852  
H254     H      0.391450000000     0.237760000000     0.944500000000     0.0264385  
H255     H      0.398050000000     0.330350000000     0.938390000000     0.0264817  
H256     H      0.359380000000     0.331500000000     0.896250000000     0.0517864  
N1       N      0.022520000000     0.327190000000     0.590580000000    -0.192274   
N2       N      0.139130000000     0.320480000000     0.709020000000    -0.192497   
N3       N      0.022550000000     0.327150000000     0.444700000000    -0.192266   
N4       N      0.139220000000     0.320380000000     0.326330000000    -0.192575   
N5       N      0.897600000000     0.326900000000     0.444670000000    -0.192515   
N6       N      0.780860000000     0.319750000000     0.326430000000    -0.192559   
N7       N      0.897570000000     0.326940000000     0.590530000000    -0.192502   
N8       N      0.780810000000     0.319830000000     0.708750000000    -0.192514   
N9       N      0.695290000000     0.234310000000     0.708750000000    -0.192427   
N10      N      0.688230000000     0.117550000000     0.590540000000    -0.192623   
N11      N      0.688250000000     0.117500000000     0.444680000000    -0.19249    
N12      N      0.695350000000     0.234230000000     0.326430000000    -0.192469   
N13      N      0.694890000000     0.875880000000     0.326360000000    -0.192481   
N14      N      0.688080000000     0.992550000000     0.444730000000    -0.192473   
N15      N      0.694820000000     0.875990000000     0.709060000000    -0.192451   
N16      N      0.688050000000     0.992600000000     0.590620000000    -0.192503   
N17      N      0.138700000000     0.791060000000     0.326660000000    -0.192458   
N18      N      0.021950000000     0.783960000000     0.444880000000    -0.192251   
N19      N      0.021910000000     0.783990000000     0.590730000000    -0.192313   
N20      N      0.138650000000     0.791150000000     0.708980000000    -0.192492   
N21      N      0.780300000000     0.790510000000     0.709080000000    -0.192509   
N22      N      0.896960000000     0.783740000000     0.590710000000    -0.192528   
N23      N      0.897000000000     0.783700000000     0.444820000000    -0.192532   
N24      N      0.780380000000     0.790410000000     0.326390000000    -0.192474   
N25      N      0.231470000000     0.118300000000     0.444790000000    -0.192501   
N26      N      0.224700000000     0.234910000000     0.326350000000    -0.192523   
N27      N      0.224620000000     0.235010000000     0.709040000000    -0.192498   
N28      N      0.231440000000     0.118350000000     0.590680000000    -0.192538   
N29      N      0.231260000000     0.993390000000     0.590720000000    -0.192501   
N30      N      0.224170000000     0.876670000000     0.708980000000    -0.192497   
N31      N      0.231290000000     0.993340000000     0.444870000000    -0.192484   
N32      N      0.224220000000     0.876580000000     0.326660000000    -0.192555   
N33      N      0.731470000000     0.492540000000     0.090550000000    -0.192534   
N34      N      0.724680000000     0.375880000000     0.208930000000    -0.1925     
N35      N      0.731290000000     0.617490000000     0.090610000000    -0.192504   
N36      N      0.724240000000     0.734210000000     0.208890000000    -0.192479   
N37      N      0.731260000000     0.617560000000     0.944760000000    -0.192526   
N38      N      0.724150000000     0.734330000000     0.826560000000    -0.192543   
N39      N      0.724630000000     0.375980000000     0.826240000000    -0.192524   
N40      N      0.731440000000     0.492600000000     0.944660000000    -0.192546   
N41      N      0.638720000000     0.819730000000     0.208880000000    -0.192496   
N42      N      0.521960000000     0.826900000000     0.090680000000    -0.192577   
N43      N      0.397000000000     0.827150000000     0.090760000000    -0.192466   
N44      N      0.280370000000     0.820380000000     0.209170000000    -0.192495   
N45      N      0.280310000000     0.820470000000     0.826480000000    -0.192498   
N46      N      0.396950000000     0.827190000000     0.944870000000    -0.19249    
N47      N      0.521900000000     0.826940000000     0.944820000000    -0.192542   
N48      N      0.638630000000     0.819850000000     0.826560000000    -0.192534   
N49      N      0.188080000000     0.618290000000     0.090750000000    -0.192558   
N50      N      0.194890000000     0.734920000000     0.209160000000    -0.19251    
N51      N      0.195360000000     0.376560000000     0.208840000000    -0.192534   
N52      N      0.188250000000     0.493340000000     0.090650000000    -0.192528   
N53      N      0.195270000000     0.376690000000     0.826520000000    -0.192507   
N54      N      0.188220000000     0.493410000000     0.944790000000    -0.192537   
N55      N      0.194830000000     0.735010000000     0.826470000000    -0.192526   
N56      N      0.188050000000     0.618360000000     0.944860000000    -0.192526   
N57      N      0.280890000000     0.291040000000     0.208850000000    -0.19247    
N58      N      0.397610000000     0.283950000000     0.090580000000    -0.192494   
N59      N      0.522560000000     0.283710000000     0.090530000000    -0.192576   
N60      N      0.639210000000     0.290420000000     0.208930000000    -0.192537   
N61      N      0.522510000000     0.283750000000     0.944650000000    -0.192611   
N62      N      0.639150000000     0.290510000000     0.826240000000    -0.192552   
N63      N      0.280790000000     0.291160000000     0.826530000000    -0.19249    
N64      N      0.397560000000     0.283990000000     0.944730000000    -0.192547   
O1       O      0.428720000000     0.259460000000     0.980810000000    -0.395974   
O2       O      0.491330000000     0.259310000000     0.054410000000    -0.396026   
O3       O      0.428750000000     0.259440000000     0.054440000000    -0.396111   
O4       O      0.491300000000     0.259340000000     0.980780000000    -0.396164   
O5       O      0.491120000000     0.307700000000     0.980770000000    -0.399249   
O6       O      0.429110000000     0.307810000000     0.054500000000    -0.399194   
O7       O      0.491140000000     0.307680000000     0.054460000000    -0.399355   
O8       O      0.429080000000     0.307830000000     0.980800000000    -0.399198   
O9       O      0.163640000000     0.587130000000     0.980980000000    -0.396244   
O10      O      0.163740000000     0.524520000000     0.054560000000    -0.39612    
O11      O      0.163650000000     0.587090000000     0.054600000000    -0.39608    
O12      O      0.163720000000     0.524550000000     0.980940000000    -0.396071   
O13      O      0.212090000000     0.524880000000     0.980880000000    -0.399178   
O14      O      0.212020000000     0.586890000000     0.054630000000    -0.399212   
O15      O      0.212110000000     0.524850000000     0.054580000000    -0.399134   
O16      O      0.212000000000     0.586920000000     0.980920000000    -0.39923    
O17      O      0.490430000000     0.803070000000     0.054610000000    -0.39935    
O18      O      0.428370000000     0.803210000000     0.980940000000    -0.399095   
O19      O      0.490410000000     0.803090000000     0.980910000000    -0.39932    
O20      O      0.428400000000     0.803190000000     0.054640000000    -0.39922    
O21      O      0.428220000000     0.851560000000     0.054620000000    -0.396137   
O22      O      0.490770000000     0.851450000000     0.980970000000    -0.396105   
O23      O      0.428190000000     0.851580000000     0.981000000000    -0.396      
O24      O      0.490800000000     0.851430000000     0.054590000000    -0.396113   
O25      O      0.707510000000     0.523970000000     0.054480000000    -0.399303   
O26      O      0.707410000000     0.586040000000     0.980820000000    -0.39929    
O27      O      0.707500000000     0.524010000000     0.980780000000    -0.399288   
O28      O      0.707420000000     0.586010000000     0.054520000000    -0.399115   
O29      O      0.755790000000     0.586340000000     0.054470000000    -0.396103   
O30      O      0.755860000000     0.523800000000     0.980800000000    -0.396132   
O31      O      0.755770000000     0.586380000000     0.980840000000    -0.396072   
O32      O      0.755880000000     0.523760000000     0.054430000000    -0.396101   
O33      O      0.207410000000     0.024880000000     0.554620000000    -0.399405   
O34      O      0.207510000000     0.086890000000     0.480890000000    -0.399268   
O35      O      0.207420000000     0.024860000000     0.480930000000    -0.399279   
O36      O      0.207500000000     0.086920000000     0.554590000000    -0.399395   
O37      O      0.255860000000     0.087120000000     0.554570000000    -0.396178   
O38      O      0.255790000000     0.024510000000     0.480970000000    -0.39604    
O39      O      0.255880000000     0.087090000000     0.480940000000    -0.396123   
O40      O      0.255770000000     0.024540000000     0.554590000000    -0.396196   
O41      O      0.928220000000     0.759320000000     0.480970000000    -0.39611    
O42      O      0.990780000000     0.759460000000     0.554620000000    -0.395059   
O43      O      0.928200000000     0.759330000000     0.554590000000    -0.396091   
O44      O      0.990800000000     0.759440000000     0.480990000000    -0.395052   
O45      O      0.990430000000     0.807810000000     0.480940000000    -0.398194   
O46      O      0.928370000000     0.807700000000     0.554620000000    -0.399139   
O47      O      0.990410000000     0.807830000000     0.554640000000    -0.398266   
O48      O      0.928390000000     0.807680000000     0.480920000000    -0.399239   
O49      O      0.663640000000     0.023800000000     0.554460000000    -0.396309   
O50      O      0.663740000000     0.086350000000     0.480810000000    -0.396138   
O51      O      0.663650000000     0.023770000000     0.480840000000    -0.396231   
O52      O      0.663730000000     0.086380000000     0.554430000000    -0.396258   
O53      O      0.712090000000     0.086040000000     0.554480000000    -0.399276   
O54      O      0.712020000000     0.023970000000     0.480810000000    -0.399256   
O55      O      0.712110000000     0.086010000000     0.480780000000    -0.399191   
O56      O      0.712000000000     0.024000000000     0.554510000000    -0.399302   
O57      O      0.929110000000     0.303070000000     0.480770000000    -0.399362   
O58      O      0.991120000000     0.303210000000     0.554490000000    -0.398291   
O59      O      0.929090000000     0.303080000000     0.554460000000    -0.399143   
O60      O      0.991140000000     0.303190000000     0.480790000000    -0.39827    
O61      O      0.991310000000     0.351560000000     0.480810000000    -0.395121   
O62      O      0.928720000000     0.351450000000     0.554410000000    -0.396031   
O63      O      0.991300000000     0.351580000000     0.554430000000    -0.394991   
O64      O      0.928730000000     0.351430000000     0.480790000000    -0.396055   
O65      O      0.215330000000     0.354780000000     0.256510000000    -0.398266   
O66      O      0.231650000000     0.283340000000     0.314290000000    -0.397225   
O67      O      0.259100000000     0.311010000000     0.256520000000    -0.398082   
O68      O      0.187650000000     0.327340000000     0.314290000000    -0.397178   
O69      O      0.161000000000     0.300450000000     0.278640000000    -0.398046   
O70      O      0.232450000000     0.284120000000     0.220880000000    -0.397327   
O71      O      0.204770000000     0.256680000000     0.278650000000    -0.398131   
O72      O      0.188450000000     0.328130000000     0.220870000000    -0.397405   
O73      O      0.660980000000     0.310350000000     0.256620000000    -0.398153   
O74      O      0.732430000000     0.326670000000     0.314400000000    -0.397156   
O75      O      0.704750000000     0.354110000000     0.256620000000    -0.398127   
O76      O      0.688430000000     0.282670000000     0.314400000000    -0.39733    
O77      O      0.715320000000     0.256010000000     0.278760000000    -0.398113   
O78      O      0.731640000000     0.327450000000     0.220980000000    -0.397209   
O79      O      0.759090000000     0.299770000000     0.278760000000    -0.398009   
O80      O      0.687640000000     0.283460000000     0.220980000000    -0.39724    
O81      O      0.704690000000     0.354200000000     0.778550000000    -0.398125   
O82      O      0.688370000000     0.282750000000     0.720780000000    -0.397349   
O83      O      0.660920000000     0.310440000000     0.778550000000    -0.39802    
O84      O      0.732370000000     0.326750000000     0.720780000000    -0.397302   
O85      O      0.759030000000     0.299860000000     0.756420000000    -0.398012   
O86      O      0.687580000000     0.283550000000     0.814190000000    -0.397295   
O87      O      0.715260000000     0.256100000000     0.756420000000    -0.398127   
O88      O      0.731580000000     0.327550000000     0.814190000000    -0.397327   
O89      O      0.687160000000     0.826650000000     0.220910000000    -0.397262   
O90      O      0.758610000000     0.810330000000     0.278690000000    -0.398106   
O91      O      0.731170000000     0.782650000000     0.220910000000    -0.397166   
O92      O      0.714840000000     0.854100000000     0.278680000000    -0.398062   
O93      O      0.687950000000     0.827450000000     0.314320000000    -0.397346   
O94      O      0.704280000000     0.755990000000     0.256560000000    -0.398121   
O95      O      0.731950000000     0.783450000000     0.314330000000    -0.397218   
O96      O      0.660510000000     0.799760000000     0.256550000000    -0.398124   
O97      O      0.714750000000     0.854210000000     0.756760000000    -0.398095   
O98      O      0.731070000000     0.782770000000     0.814530000000    -0.397332   
O99      O      0.758510000000     0.810450000000     0.756760000000    -0.398261   
O100     O      0.687060000000     0.826770000000     0.814530000000    -0.39738    
O101     O      0.660410000000     0.799880000000     0.778890000000    -0.398072   
O102     O      0.731870000000     0.783560000000     0.721120000000    -0.397317   
O103     O      0.704190000000     0.756110000000     0.778890000000    -0.398168   
O104     O      0.687860000000     0.827560000000     0.721110000000    -0.397194   
O105     O      0.187940000000     0.783350000000     0.221220000000    -0.397294   
O106     O      0.204260000000     0.854790000000     0.278990000000    -0.398218   
O107     O      0.231940000000     0.827340000000     0.221210000000    -0.397277   
O108     O      0.160490000000     0.811030000000     0.278990000000    -0.398163   
O109     O      0.187140000000     0.784140000000     0.314630000000    -0.397364   
O110     O      0.258590000000     0.800450000000     0.256860000000    -0.398116   
O111     O      0.231150000000     0.828140000000     0.314630000000    -0.39727    
O112     O      0.214830000000     0.756690000000     0.256860000000    -0.398004   
O113     O      0.231090000000     0.828230000000     0.721010000000    -0.397287   
O114     O      0.214770000000     0.756780000000     0.778780000000    -0.397932   
O115     O      0.187090000000     0.784230000000     0.721010000000    -0.397313   
O116     O      0.258530000000     0.800550000000     0.778780000000    -0.398118   
O117     O      0.231880000000     0.827440000000     0.814420000000    -0.397316   
O118     O      0.160430000000     0.811120000000     0.756650000000    -0.398114   
O119     O      0.187870000000     0.783440000000     0.814420000000    -0.39724    
O120     O      0.204200000000     0.854890000000     0.756650000000    -0.398008   
O121     O      0.259010000000     0.311130000000     0.778860000000    -0.397942   
O122     O      0.187560000000     0.327440000000     0.721070000000    -0.397354   
O123     O      0.215230000000     0.354900000000     0.778850000000    -0.39813    
O124     O      0.231570000000     0.283440000000     0.721080000000    -0.397224   
O125     O      0.204680000000     0.256790000000     0.756730000000    -0.398074   
O126     O      0.188350000000     0.328250000000     0.814490000000    -0.397379   
O127     O      0.160910000000     0.300560000000     0.756720000000    -0.398147   
O128     O      0.232350000000     0.284240000000     0.814500000000    -0.397209   


