data_structure

_audit_creation_method RASPA-1.0
_audit_creation_date 2023-5-23
_audit_author_name 'Poobodin Mano'

_cell_length_a    45.5009
_cell_length_b    45.4985
_cell_length_c    30.4092
_cell_angle_alpha 89.9999
_cell_angle_beta  90.0001
_cell_angle_gamma 90
_cell_volume      62953.8

_symmetry_cell_setting          triclinic
_symmetry_space_group_name_Hall 'P 1'
_symmetry_space_group_name_H-M  'P 1'
_symmetry_Int_Tables_number     1

_symmetry_equiv_pos_as_xyz 'x,y,z'

loop_
_atom_site_label
_atom_site_type_symbol
_atom_site_fract_x
_atom_site_fract_y
_atom_site_fract_z
_atom_site_charge
C1       C      0.328270000000     0.994870000000     0.906920000000     0.403586   
C2       C      0.328220000000     0.995800000000     0.082330000000     0.403786   
C3       C      0.269630000000     0.995690000000     0.994600000000     0.403359   
C4       C      0.386880000000     0.994770000000     0.994690000000     0.403892   
C5       C      0.328810000000     0.996820000000     0.406910000000     0.403885   
C6       C      0.329060000000     0.995510000000     0.582300000000     0.403799   
C7       C      0.387500000000     0.996760000000     0.494340000000     0.40367    
C8       C      0.270270000000     0.995760000000     0.494830000000     0.403678   
C9       C      0.995670000000     0.663780000000     0.082580000000     0.403492   
C10      C      0.995080000000     0.663860000000     0.907190000000     0.403357   
C11      C      0.995290000000     0.722550000000     0.994960000000     0.40339    
C12      C      0.995400000000     0.605330000000     0.994800000000     0.403613   
C13      C      0.995980000000     0.661600000000     0.407170000000     0.403384   
C14      C      0.995110000000     0.661600000000     0.582600000000     0.403652   
C15      C      0.995430000000     0.602850000000     0.494870000000     0.403739   
C16      C      0.995720000000     0.720110000000     0.494880000000     0.403621   
C17      C      0.662190000000     0.995340000000     0.081730000000     0.403649   
C18      C      0.662800000000     0.996270000000     0.906330000000     0.403888   
C19      C      0.603860000000     0.994830000000     0.993520000000     0.403855   
C20      C      0.721090000000     0.996860000000     0.994390000000     0.403501   
C21      C      0.663150000000     0.996270000000     0.581710000000     0.403907   
C22      C      0.662970000000     0.995020000000     0.406300000000     0.403676   
C23      C      0.604470000000     0.996670000000     0.494320000000     0.403847   
C24      C      0.721710000000     0.994540000000     0.493780000000     0.403489   
C25      C      0.995710000000     0.055530000000     0.994320000000     0.405421   
C26      C      0.995050000000     0.938300000000     0.994600000000     0.405217   
C27      C      0.053990000000     0.996590000000     0.994530000000     0.405164   
C28      C      0.936760000000     0.997410000000     0.994390000000     0.405387   
C29      C      0.995610000000     0.052960000000     0.494120000000     0.404803   
C30      C      0.996280000000     0.935700000000     0.494380000000     0.405283   
C31      C      0.054580000000     0.994670000000     0.494530000000     0.404888   
C32      C      0.937340000000     0.993840000000     0.493940000000     0.405271   
C33      C      0.994960000000     0.329770000000     0.081860000000     0.403341   
C34      C      0.996090000000     0.329800000000     0.906460000000     0.403554   
C35      C      0.995480000000     0.388420000000     0.994200000000     0.403473   
C36      C      0.995600000000     0.271220000000     0.994140000000     0.403534   
C37      C      0.994690000000     0.327320000000     0.406440000000     0.403465   
C38      C      0.996090000000     0.327260000000     0.581870000000     0.403494   
C39      C      0.995360000000     0.385900000000     0.494220000000     0.403634   
C40      C      0.995400000000     0.268630000000     0.494100000000     0.4032     
C41      C      0.971060000000     0.336090000000     0.792310000000    -0.0848037  
C42      C      0.996610000000     0.328880000000     0.768770000000     0.0324157  
C43      C      0.022070000000     0.322240000000     0.792900000000    -0.0830939  
C44      C      0.021640000000     0.323140000000     0.838820000000     0.0713093  
C45      C      0.971190000000     0.335940000000     0.838230000000     0.0696538  
C46      C      0.996630000000     0.328230000000     0.719560000000     0.0324708  
C47      C      0.970960000000     0.321500000000     0.696010000000    -0.0850065  
C48      C      0.971130000000     0.321610000000     0.650110000000     0.0698004  
C49      C      0.021820000000     0.333390000000     0.649510000000     0.0713473  
C50      C      0.022240000000     0.334340000000     0.695450000000    -0.083006   
C51      C      0.968900000000     0.322210000000     0.195380000000    -0.0847728  
C52      C      0.994320000000     0.328910000000     0.219550000000     0.0324077  
C53      C      0.019890000000     0.336150000000     0.196040000000    -0.0831668  
C54      C      0.019800000000     0.335960000000     0.150130000000     0.0714228  
C55      C      0.969370000000     0.323090000000     0.149460000000     0.0695645  
C56      C      0.994260000000     0.328280000000     0.268750000000     0.0324184  
C57      C      0.968620000000     0.334360000000     0.292820000000    -0.0846723  
C58      C      0.969000000000     0.333420000000     0.338760000000     0.0695811  
C59      C      0.019710000000     0.321700000000     0.338250000000     0.0714911  
C60      C      0.019910000000     0.321580000000     0.292360000000    -0.0832419  
C61      C      0.969120000000     0.192500000000     0.498700000000    -0.0866742  
C62      C      0.995400000000     0.176970000000     0.493990000000     0.0332312  
C63      C      0.021670000000     0.192500000000     0.489310000000    -0.0849575  
C64      C      0.021330000000     0.223200000000     0.489870000000     0.0713672  
C65      C      0.969470000000     0.223190000000     0.498210000000     0.0696817  
C66      C      0.995400000000     0.144610000000     0.494000000000     0.0306958  
C67      C      0.990500000000     0.129100000000     0.532920000000    -0.0851996  
C68      C      0.990920000000     0.098400000000     0.532470000000     0.0689412  
C69      C      0.999990000000     0.098380000000     0.455620000000     0.0641084  
C70      C      0.000320000000     0.129070000000     0.455110000000    -0.0801326  
C71      C      0.021450000000     0.195160000000     0.003430000000    -0.0846512  
C72      C      0.995750000000     0.179570000000     0.994140000000     0.03258    
C73      C      0.970000000000     0.195080000000     0.984840000000    -0.0863106  
C74      C      0.970240000000     0.225770000000     0.985520000000     0.0696288  
C75      C      0.021110000000     0.225850000000     0.002740000000     0.0714207  
C76      C      0.995800000000     0.147180000000     0.994160000000     0.0325744  
C77      C      0.001540000000     0.131650000000     0.032840000000    -0.0845584  
C78      C      0.001080000000     0.100960000000     0.032440000000     0.0716683  
C79      C      0.990540000000     0.100910000000     0.956020000000     0.069799   
C80      C      0.990090000000     0.131600000000     0.955530000000    -0.08637    
C81      C      0.797470000000     0.967310000000     0.500000000000    -0.0856747  
C82      C      0.813340000000     0.993210000000     0.493420000000     0.0313722  
C83      C      0.798140000000     0.019500000000     0.486910000000    -0.0842158  
C84      C      0.767470000000     0.019590000000     0.487600000000     0.0711615  
C85      C      0.766760000000     0.968040000000     0.499470000000     0.0692776  
C86      C      0.845700000000     0.992910000000     0.493440000000     0.0355549  
C87      C      0.861180000000     0.987830000000     0.532340000000    -0.0874445  
C88      C      0.891880000000     0.988510000000     0.532030000000     0.0700361  
C89      C      0.891970000000     0.998050000000     0.455310000000     0.0685127  
C90      C      0.861280000000     0.998190000000     0.454690000000    -0.0891908  
C91      C      0.669270000000     0.970940000000     0.792400000000    -0.084883   
C92      C      0.663210000000     0.996720000000     0.768650000000     0.032529   
C93      C      0.657190000000     0.022410000000     0.792630000000    -0.0831418  
C94      C      0.657660000000     0.021980000000     0.838560000000     0.0716383  
C95      C      0.668570000000     0.971090000000     0.838300000000     0.0698522  
C96      C      0.663090000000     0.996740000000     0.719400000000     0.0324376  
C97      C      0.656350000000     0.971130000000     0.695670000000    -0.0849064  
C98      C      0.656930000000     0.971290000000     0.649790000000     0.0698464  
C99      C      0.669100000000     0.021900000000     0.649440000000     0.0714741  
C100     C      0.669700000000     0.022290000000     0.695390000000    -0.0829771  
C101     C      0.655190000000     0.020330000000     0.195800000000    -0.0831747  
C102     C      0.662210000000     0.994740000000     0.219410000000     0.0324607  
C103     C      0.669010000000     0.969300000000     0.195350000000    -0.0848534  
C104     C      0.668420000000     0.969770000000     0.149420000000     0.0697015  
C105     C      0.655690000000     0.020240000000     0.149890000000     0.0714335  
C106     C      0.662530000000     0.994680000000     0.268620000000     0.0324548  
C107     C      0.669040000000     0.020340000000     0.292320000000    -0.0833503  
C108     C      0.668710000000     0.020110000000     0.338210000000     0.0715852  
C109     C      0.657100000000     0.969370000000     0.338550000000     0.0696393  
C110     C      0.656360000000     0.969010000000     0.292600000000    -0.0846953  
C111     C      0.796870000000     0.023860000000     0.002200000000    -0.084557   
C112     C      0.812730000000     0.998100000000     0.994300000000     0.0325067  
C113     C      0.797510000000     0.971990000000     0.986480000000    -0.0864396  
C114     C      0.766830000000     0.971910000000     0.987170000000     0.0696516  
C115     C      0.766160000000     0.023160000000     0.001580000000     0.0713647  
C116     C      0.845120000000     0.998380000000     0.994220000000     0.0325309  
C117     C      0.860670000000     0.003940000000     0.032910000000    -0.0846252  
C118     C      0.891370000000     0.003210000000     0.032510000000     0.0714515  
C119     C      0.891330000000     0.992770000000     0.956060000000     0.0695374  
C120     C      0.860640000000     0.992620000000     0.955560000000    -0.0865191  
C121     C      0.969760000000     0.526790000000     0.484770000000    -0.0847622  
C122     C      0.995340000000     0.510820000000     0.494630000000     0.0324828  
C123     C      0.020930000000     0.526720000000     0.504630000000    -0.0830401  
C124     C      0.020670000000     0.557410000000     0.503950000000     0.0713993  
C125     C      0.970070000000     0.557480000000     0.485660000000     0.0697392  
C126     C      0.995330000000     0.477930000000     0.494480000000     0.032466   
C127     C      0.969770000000     0.461980000000     0.504500000000    -0.0847871  
C128     C      0.970070000000     0.431280000000     0.503620000000     0.0697755  
C129     C      0.020610000000     0.431320000000     0.485020000000     0.0714225  
C130     C      0.020890000000     0.462010000000     0.484330000000    -0.083017   
C131     C      0.022300000000     0.796130000000     0.498720000000    -0.0846963  
C132     C      0.996030000000     0.811730000000     0.494750000000     0.0324752  
C133     C      0.969640000000     0.796310000000     0.490860000000    -0.0864746  
C134     C      0.969890000000     0.765620000000     0.491390000000     0.0696115  
C135     C      0.021840000000     0.765440000000     0.498310000000     0.0712851  
C136     C      0.996150000000     0.844080000000     0.494650000000     0.0325234  
C137     C      0.000570000000     0.859630000000     0.533650000000    -0.0847985  
C138     C      0.000320000000     0.890320000000     0.533050000000     0.0714244  
C139     C      0.992270000000     0.890240000000     0.455940000000     0.0695079  
C140     C      0.991850000000     0.859540000000     0.455540000000    -0.0865954  
C141     C      0.969880000000     0.529250000000     0.984430000000    -0.0848332  
C142     C      0.995430000000     0.513320000000     0.994550000000     0.0325021  
C143     C      0.020970000000     0.529240000000     0.004760000000    -0.0830945  
C144     C      0.020680000000     0.559930000000     0.004070000000     0.071563   
C145     C      0.970160000000     0.559930000000     0.985310000000     0.069735   
C146     C      0.995440000000     0.480440000000     0.994440000000     0.0324306  
C147     C      0.969860000000     0.464490000000     0.004370000000    -0.084713   
C148     C      0.970160000000     0.433800000000     0.003490000000     0.0697156  
C149     C      0.020740000000     0.433840000000     0.985100000000     0.0715185  
C150     C      0.021020000000     0.464530000000     0.984410000000    -0.083117   
C151     C      0.020310000000     0.656060000000     0.793360000000    -0.0831609  
C152     C      0.994770000000     0.662860000000     0.769500000000     0.0323984  
C153     C      0.969310000000     0.669980000000     0.793320000000    -0.0848083  
C154     C      0.969690000000     0.669820000000     0.839270000000     0.0696116  
C155     C      0.020130000000     0.656970000000     0.839250000000     0.0713499  
C156     C      0.994760000000     0.662570000000     0.720290000000     0.0324305  
C157     C      0.020440000000     0.668790000000     0.696450000000    -0.0833424  
C158     C      0.020230000000     0.667920000000     0.650570000000     0.0715218  
C159     C      0.969510000000     0.656250000000     0.650490000000     0.0695802  
C160     C      0.969130000000     0.656060000000     0.696450000000    -0.0846748  
C161     C      0.970560000000     0.668800000000     0.293370000000    -0.0849631  
C162     C      0.996190000000     0.662490000000     0.269480000000     0.0324255  
C163     C      0.021830000000     0.655930000000     0.293260000000    -0.0829459  
C164     C      0.021500000000     0.656150000000     0.339220000000     0.0712943  
C165     C      0.970810000000     0.667960000000     0.339250000000     0.0697627  
C166     C      0.996120000000     0.662760000000     0.220270000000     0.0324097  
C167     C      0.970550000000     0.655980000000     0.196470000000    -0.0848186  
C168     C      0.970680000000     0.656890000000     0.150580000000     0.069674   
C169     C      0.021120000000     0.669720000000     0.150450000000     0.0713389  
C170     C      0.021550000000     0.669870000000     0.196390000000    -0.0831119  
C171     C      0.969410000000     0.798620000000     0.004070000000    -0.0862294  
C172     C      0.995130000000     0.814220000000     0.994940000000     0.0324535  
C173     C      0.020910000000     0.798710000000     0.985840000000    -0.0845704  
C174     C      0.020680000000     0.768010000000     0.986560000000     0.0712741  
C175     C      0.969760000000     0.767920000000     0.003410000000     0.0695319  
C176     C      0.995060000000     0.846630000000     0.994850000000     0.0324988  
C177     C      0.989260000000     0.862230000000     0.033440000000    -0.0863795  
C178     C      0.989680000000     0.892920000000     0.032910000000     0.0695221  
C179     C      0.000300000000     0.892840000000     0.956510000000     0.0714167  
C180     C      0.000790000000     0.862140000000     0.956160000000    -0.084639   
C181     C      0.463450000000     0.023070000000     0.502790000000    -0.0830256  
C182     C      0.479530000000     0.997370000000     0.494100000000     0.0325809  
C183     C      0.463710000000     0.971540000000     0.485160000000    -0.0847815  
C184     C      0.433030000000     0.971640000000     0.486090000000     0.0699292  
C185     C      0.432750000000     0.022590000000     0.501960000000     0.0716025  
C186     C      0.512450000000     0.997400000000     0.494490000000     0.0325336  
C187     C      0.528550000000     0.022910000000     0.484540000000    -0.0828509  
C188     C      0.559270000000     0.022470000000     0.485480000000     0.0714569  
C189     C      0.558910000000     0.971910000000     0.503980000000     0.069993   
C190     C      0.528260000000     0.971820000000     0.504830000000    -0.0848835  
C191     C      0.194320000000     0.969380000000     0.486710000000    -0.086685   
C192     C      0.178620000000     0.995160000000     0.495010000000     0.0333602  
C193     C      0.194000000000     0.021130000000     0.503310000000    -0.0849759  
C194     C      0.224690000000     0.021020000000     0.502610000000     0.0714036  
C195     C      0.225010000000     0.969870000000     0.487340000000     0.0697698  
C196     C      0.146230000000     0.994990000000     0.494920000000     0.0307427  
C197     C      0.130770000000     0.989370000000     0.456150000000    -0.0851533  
C198     C      0.100080000000     0.989710000000     0.456470000000     0.0690581  
C199     C      0.099900000000     0.999960000000     0.532990000000     0.0641897  
C200     C      0.130590000000     0.000500000000     0.533560000000    -0.0800859  
C201     C      0.463120000000     0.020020000000     0.003330000000    -0.0830236  
C202     C      0.478920000000     0.994180000000     0.994280000000     0.032494   
C203     C      0.462800000000     0.968490000000     0.985690000000    -0.0846552  
C204     C      0.432110000000     0.968960000000     0.986750000000     0.0698182  
C205     C      0.432440000000     0.019910000000     0.002640000000     0.0716714  
C206     C      0.511830000000     0.994140000000     0.993690000000     0.03247    
C207     C      0.527630000000     0.019710000000     0.983230000000    -0.0832009  
C208     C      0.558300000000     0.019590000000     0.983920000000     0.0717238  
C209     C      0.558660000000     0.969050000000     0.002500000000     0.069717   
C210     C      0.527950000000     0.968630000000     0.003580000000    -0.0844444  
C211     C      0.322350000000     0.969260000000     0.695830000000    -0.0846858  
C212     C      0.328890000000     0.994760000000     0.719980000000     0.032478   
C213     C      0.335710000000     0.020410000000     0.696410000000    -0.0832336  
C214     C      0.335240000000     0.020350000000     0.650510000000     0.0715808  
C215     C      0.323040000000     0.969750000000     0.649890000000     0.0696796  
C216     C      0.328570000000     0.994680000000     0.769230000000     0.0324976  
C217     C      0.322340000000     0.020400000000     0.793020000000    -0.0832597  
C218     C      0.322790000000     0.020150000000     0.838920000000     0.07163    
C219     C      0.333790000000     0.969280000000     0.839100000000     0.0697823  
C220     C      0.334510000000     0.968950000000     0.793170000000    -0.084722   
C221     C      0.334360000000     0.022240000000     0.195810000000    -0.0831731  
C222     C      0.328260000000     0.996680000000     0.220010000000     0.0324989  
C223     C      0.322000000000     0.970840000000     0.196510000000    -0.0848311  
C224     C      0.322540000000     0.970830000000     0.150600000000     0.0697778  
C225     C      0.333780000000     0.021650000000     0.149890000000     0.0715875  
C226     C      0.328530000000     0.996890000000     0.269230000000     0.0325133  
C227     C      0.335540000000     0.971420000000     0.293080000000    -0.0850592  
C228     C      0.335120000000     0.971740000000     0.338960000000     0.0700363  
C229     C      0.322570000000     0.022250000000     0.339040000000     0.0713575  
C230     C      0.321850000000     0.022480000000     0.293080000000    -0.0829886  
C231     C      0.193660000000     0.022270000000     0.988550000000    -0.0846907  
C232     C      0.177990000000     0.996200000000     0.994650000000     0.0325867  
C233     C      0.193380000000     0.969970000000     0.000730000000    -0.0864314  
C234     C      0.224070000000     0.970140000000     0.000130000000     0.0697374  
C235     C      0.224350000000     0.021780000000     0.989130000000     0.0712607  
C236     C      0.145630000000     0.996350000000     0.994630000000     0.032456   
C237     C      0.130130000000     0.001660000000     0.955810000000    -0.0845778  
C238     C      0.099440000000     0.001320000000     0.956240000000     0.0715144  
C239     C      0.099370000000     0.991590000000     0.032910000000     0.0696598  
C240     C      0.130060000000     0.991110000000     0.033410000000    -0.0862923  
Cu1      Cu     0.328070000000     0.968150000000     0.994870000000     0.8441     
Cu2      Cu     0.328450000000     0.022390000000     0.994380000000     0.848697   
Cu3      Cu     0.328680000000     0.023340000000     0.495230000000     0.847024   
Cu4      Cu     0.329100000000     0.969120000000     0.493970000000     0.845864   
Cu5      Cu     0.022450000000     0.663950000000     0.994740000000     0.847187   
Cu6      Cu     0.968280000000     0.663900000000     0.995040000000     0.843816   
Cu7      Cu     0.022660000000     0.661410000000     0.495330000000     0.847699   
Cu8      Cu     0.968460000000     0.661540000000     0.494440000000     0.844259   
Cu9      Cu     0.661870000000     0.022930000000     0.994280000000     0.848189   
Cu10     Cu     0.663080000000     0.968710000000     0.993780000000     0.844633   
Cu11     Cu     0.663710000000     0.022740000000     0.493400000000     0.847602   
Cu12     Cu     0.662460000000     0.968520000000     0.494620000000     0.845236   
Cu13     Cu     0.995350000000     0.996970000000     0.035000000000     0.842829   
Cu14     Cu     0.995390000000     0.996880000000     0.953930000000     0.842981   
Cu15     Cu     0.995860000000     0.994360000000     0.534780000000     0.842605   
Cu16     Cu     0.996050000000     0.994280000000     0.453700000000     0.842948   
Cu17     Cu     0.022610000000     0.329850000000     0.994500000000     0.847346   
Cu18     Cu     0.968440000000     0.329790000000     0.993810000000     0.843863   
Cu19     Cu     0.968280000000     0.327260000000     0.494790000000     0.843853   
Cu20     Cu     0.022480000000     0.327280000000     0.493520000000     0.847498   
H1       H      0.042260000000     0.315870000000     0.776710000000     0.0504317  
H2       H      0.041830000000     0.317790000000     0.855990000000     0.0263474  
H3       H      0.950890000000     0.341580000000     0.854880000000     0.0263502  
H4       H      0.950960000000     0.342220000000     0.775650000000     0.0503977  
H5       H      0.950740000000     0.315790000000     0.712660000000     0.050354   
H6       H      0.950710000000     0.316370000000     0.633470000000     0.0262479  
H7       H      0.042120000000     0.338320000000     0.632340000000     0.0263014  
H8       H      0.042550000000     0.340300000000     0.711660000000     0.0504549  
H9       H      0.039960000000     0.342310000000     0.212740000000     0.0504688  
H10      H      0.040110000000     0.341620000000     0.133500000000     0.0263061  
H11      H      0.949200000000     0.317690000000     0.132270000000     0.0263905  
H12      H      0.948700000000     0.315820000000     0.211540000000     0.0503572  
H13      H      0.948320000000     0.340300000000     0.276570000000     0.0504068  
H14      H      0.948690000000     0.338340000000     0.355900000000     0.026312   
H15      H      0.040120000000     0.316470000000     0.354920000000     0.0262185  
H16      H      0.040160000000     0.315880000000     0.275750000000     0.05033    
H17      H      0.042360000000     0.180970000000     0.485650000000     0.0530057  
H18      H      0.042180000000     0.234480000000     0.486350000000     0.0264477  
H19      H      0.948610000000     0.234470000000     0.501760000000     0.0264913  
H20      H      0.948430000000     0.180960000000     0.502350000000     0.0528541  
H21      H      0.986650000000     0.140640000000     0.563550000000     0.0524455  
H22      H      0.987170000000     0.087130000000     0.563380000000     0.0268627  
H23      H      0.003780000000     0.087090000000     0.424740000000     0.0297222  
H24      H      0.004150000000     0.140600000000     0.424460000000     0.0521067  
H25      H      0.949740000000     0.183540000000     0.977600000000     0.0525344  
H26      H      0.949780000000     0.237030000000     0.978390000000     0.0265432  
H27      H      0.041530000000     0.237170000000     0.009880000000     0.0265201  
H28      H      0.041740000000     0.183690000000     0.010670000000     0.0526738  
H29      H      0.005980000000     0.143180000000     0.063300000000     0.0529161  
H30      H      0.005460000000     0.089700000000     0.063170000000     0.0270716  
H31      H      0.986150000000     0.089610000000     0.925320000000     0.0265961  
H32      H      0.985630000000     0.143100000000     0.925040000000     0.0524798  
H33      H      0.809930000000     0.039910000000     0.481800000000     0.0526437  
H34      H      0.756490000000     0.040480000000     0.482650000000     0.0264799  
H35      H      0.755180000000     0.947480000000     0.504480000000     0.0265401  
H36      H      0.808730000000     0.946600000000     0.505080000000     0.0524051  
H37      H      0.849620000000     0.983770000000     0.562890000000     0.0527912  
H38      H      0.903120000000     0.984660000000     0.562930000000     0.0261965  
H39      H      0.903280000000     0.002130000000     0.424530000000     0.0282937  
H40      H      0.849790000000     0.002220000000     0.424060000000     0.0547999  
H41      H      0.651650000000     0.042810000000     0.776350000000     0.0503995  
H42      H      0.652850000000     0.042360000000     0.855600000000     0.0260389  
H43      H      0.673310000000     0.950620000000     0.855110000000     0.0260297  
H44      H      0.674920000000     0.950630000000     0.775960000000     0.0502445  
H45      H      0.650220000000     0.950960000000     0.712110000000     0.0503422  
H46      H      0.651630000000     0.950940000000     0.633020000000     0.0261558  
H47      H      0.674360000000     0.042150000000     0.632360000000     0.0261121  
H48      H      0.675770000000     0.042540000000     0.711670000000     0.0503377  
H49      H      0.675270000000     0.949090000000     0.211590000000     0.0503609  
H50      H      0.673880000000     0.949580000000     0.132320000000     0.0263219  
H51      H      0.650190000000     0.040560000000     0.133170000000     0.0262549  
H52      H      0.648960000000     0.040420000000     0.212390000000     0.0504526  
H53      H      0.674800000000     0.040600000000     0.275810000000     0.0503421  
H54      H      0.673820000000     0.040520000000     0.354950000000     0.0261471  
H55      H      0.652160000000     0.949040000000     0.355620000000     0.0262679  
H56      H      0.650530000000     0.948710000000     0.276270000000     0.0504183  
H57      H      0.809270000000     0.951690000000     0.980340000000     0.052498   
H58      H      0.755840000000     0.951150000000     0.981170000000     0.0264497  
H59      H      0.754600000000     0.043610000000     0.007590000000     0.0263974  
H60      H      0.808140000000     0.044430000000     0.008310000000     0.0526153  
H61      H      0.849170000000     0.008380000000     0.063400000000     0.0528373  
H62      H      0.902670000000     0.007420000000     0.063260000000     0.0267768  
H63      H      0.902590000000     0.988310000000     0.925350000000     0.0262865  
H64      H      0.849110000000     0.988230000000     0.925080000000     0.0524159  
H65      H      0.041140000000     0.515710000000     0.513590000000     0.0504659  
H66      H      0.040990000000     0.568680000000     0.511860000000     0.0263642  
H67      H      0.949770000000     0.568810000000     0.477820000000     0.026364   
H68      H      0.949540000000     0.515830000000     0.475740000000     0.0504438  
H69      H      0.949580000000     0.472940000000     0.513660000000     0.0504537  
H70      H      0.949780000000     0.419970000000     0.511580000000     0.0263623  
H71      H      0.040900000000     0.420040000000     0.476980000000     0.0263341  
H72      H      0.041080000000     0.473020000000     0.475240000000     0.0504476  
H73      H      0.948950000000     0.807920000000     0.487770000000     0.0527238  
H74      H      0.948950000000     0.754410000000     0.488450000000     0.0264705  
H75      H      0.042700000000     0.754100000000     0.501280000000     0.0264408  
H76      H      0.043080000000     0.807600000000     0.501760000000     0.0528108  
H77      H      0.003960000000     0.848120000000     0.564430000000     0.0531122  
H78      H      0.003690000000     0.901630000000     0.564030000000     0.0268703  
H79      H      0.988940000000     0.901470000000     0.424900000000     0.0263563  
H80      H      0.988400000000     0.847970000000     0.424830000000     0.0526575  
H81      H      0.041150000000     0.518240000000     0.013900000000     0.0505009  
H82      H      0.040950000000     0.571220000000     0.012170000000     0.0263268  
H83      H      0.949880000000     0.571240000000     0.977270000000     0.0264111  
H84      H      0.949710000000     0.518260000000     0.975220000000     0.0504532  
H85      H      0.949650000000     0.475460000000     0.013430000000     0.0504478  
H86      H      0.949860000000     0.422480000000     0.011380000000     0.0264176  
H87      H      0.041050000000     0.422560000000     0.977140000000     0.0263547  
H88      H      0.041220000000     0.475540000000     0.975410000000     0.0504887  
H89      H      0.949140000000     0.676100000000     0.776860000000     0.0503509  
H90      H      0.949480000000     0.675460000000     0.856190000000     0.0263227  
H91      H      0.040410000000     0.651570000000     0.856150000000     0.0263329  
H92      H      0.040410000000     0.649640000000     0.776970000000     0.0504487  
H93      H      0.040680000000     0.674750000000     0.712840000000     0.0503496  
H94      H      0.040640000000     0.672870000000     0.633710000000     0.0261828  
H95      H      0.949190000000     0.651100000000     0.633540000000     0.026307   
H96      H      0.948820000000     0.650410000000     0.712910000000     0.0503958  
H97      H      0.042110000000     0.650220000000     0.276750000000     0.0504296  
H98      H      0.041830000000     0.650960000000     0.356140000000     0.0262907  
H99      H      0.950440000000     0.672980000000     0.356150000000     0.0262743  
H100     H      0.950310000000     0.674790000000     0.277010000000     0.0503061  
H101     H      0.950460000000     0.649560000000     0.212920000000     0.0503859  
H102     H      0.950380000000     0.651490000000     0.133720000000     0.0263621  
H103     H      0.041310000000     0.675360000000     0.133490000000     0.0263356  
H104     H      0.041740000000     0.675980000000     0.212810000000     0.0504226  
H105     H      0.041190000000     0.810250000000     0.978730000000     0.0525219  
H106     H      0.041160000000     0.756760000000     0.979570000000     0.0264627  
H107     H      0.949320000000     0.756610000000     0.010410000000     0.0265229  
H108     H      0.949090000000     0.810090000000     0.011160000000     0.0524138  
H109     H      0.984790000000     0.850750000000     0.063940000000     0.0523206  
H110     H      0.985260000000     0.904240000000     0.063580000000     0.0262659  
H111     H      0.004710000000     0.904080000000     0.925780000000     0.0267584  
H112     H      0.005290000000     0.850600000000     0.925730000000     0.052767   
H113     H      0.474730000000     0.951210000000     0.476900000000     0.0503492  
H114     H      0.421840000000     0.951120000000     0.479110000000     0.026095   
H115     H      0.421310000000     0.042980000000     0.508910000000     0.0260951  
H116     H      0.474290000000     0.043520000000     0.510940000000     0.0503846  
H117     H      0.517720000000     0.043160000000     0.475340000000     0.050409   
H118     H      0.570750000000     0.042660000000     0.477520000000     0.0261277  
H119     H      0.570060000000     0.951550000000     0.512060000000     0.0262102  
H120     H      0.517230000000     0.951690000000     0.514130000000     0.0503624  
H121     H      0.182360000000     0.041450000000     0.509770000000     0.0528258  
H122     H      0.235850000000     0.041650000000     0.508940000000     0.0265071  
H123     H      0.236420000000     0.949390000000     0.480970000000     0.0264798  
H124     H      0.182930000000     0.948920000000     0.480240000000     0.0527073  
H125     H      0.142360000000     0.985080000000     0.425690000000     0.0522688  
H126     H      0.088870000000     0.985410000000     0.425670000000     0.0267962  
H127     H      0.088540000000     0.004180000000     0.563690000000     0.0296335  
H128     H      0.142040000000     0.004890000000     0.564110000000     0.0518917  
H129     H      0.473620000000     0.948040000000     0.977470000000     0.0503265  
H130     H      0.420650000000     0.948570000000     0.979870000000     0.0261844  
H131     H      0.421270000000     0.040430000000     0.009700000000     0.0260883  
H132     H      0.474170000000     0.040350000000     0.011500000000     0.050389   
H133     H      0.516600000000     0.039840000000     0.973970000000     0.0504206  
H134     H      0.569440000000     0.039950000000     0.975770000000     0.0261782  
H135     H      0.570140000000     0.948850000000     0.010440000000     0.0262111  
H136     H      0.517120000000     0.948390000000     0.012870000000     0.050343   
H137     H      0.341800000000     0.040540000000     0.712990000000     0.0504058  
H138     H      0.340580000000     0.040730000000     0.633860000000     0.0261122  
H139     H      0.317810000000     0.949540000000     0.632700000000     0.0262305  
H140     H      0.316230000000     0.948980000000     0.711980000000     0.0503112  
H141     H      0.316740000000     0.040730000000     0.776610000000     0.0503288  
H142     H      0.317920000000     0.040590000000     0.855750000000     0.0260618  
H143     H      0.338540000000     0.948880000000     0.856110000000     0.0261332  
H144     H      0.340160000000     0.948590000000     0.776850000000     0.0503332  
H145     H      0.316310000000     0.950620000000     0.213180000000     0.0502854  
H146     H      0.317630000000     0.950330000000     0.133960000000     0.0261034  
H147     H      0.338660000000     0.041950000000     0.132690000000     0.0261906  
H148     H      0.340040000000     0.042660000000     0.211920000000     0.0504591  
H149     H      0.341730000000     0.951240000000     0.276710000000     0.0504271  
H150     H      0.340620000000     0.951460000000     0.355810000000     0.0262332  
H151     H      0.317220000000     0.042510000000     0.356020000000     0.0261662  
H152     H      0.315620000000     0.042630000000     0.276660000000     0.0504024  
H153     H      0.181750000000     0.949440000000     0.005480000000     0.0527456  
H154     H      0.235230000000     0.949310000000     0.004740000000     0.0264832  
H155     H      0.235750000000     0.042470000000     0.984500000000     0.0264341  
H156     H      0.182240000000     0.042920000000     0.983810000000     0.0528252  
H157     H      0.141690000000     0.005750000000     0.925260000000     0.0530834  
H158     H      0.088190000000     0.005400000000     0.925410000000     0.0271544  
H159     H      0.088070000000     0.987570000000     0.063710000000     0.0266376  
H160     H      0.141570000000     0.986950000000     0.063990000000     0.0526214  
N1       N      0.996320000000     0.329650000000     0.861340000000    -0.193212   
N2       N      0.996380000000     0.327390000000     0.626990000000    -0.193207   
N3       N      0.994700000000     0.329630000000     0.126980000000    -0.193184   
N4       N      0.994430000000     0.327450000000     0.361320000000    -0.193202   
N5       N      0.995400000000     0.238460000000     0.494060000000    -0.193062   
N6       N      0.995490000000     0.083130000000     0.494060000000    -0.191334   
N7       N      0.995650000000     0.241060000000     0.994130000000    -0.193195   
N8       N      0.995790000000     0.085690000000     0.994250000000    -0.193426   
N9       N      0.751860000000     0.994030000000     0.493610000000    -0.193103   
N10      N      0.907180000000     0.993470000000     0.493760000000    -0.192485   
N11      N      0.663000000000     0.996460000000     0.861230000000    -0.19341    
N12      N      0.663070000000     0.996520000000     0.626810000000    -0.193367   
N13      N      0.662090000000     0.995110000000     0.126850000000    -0.193252   
N14      N      0.662940000000     0.994800000000     0.361190000000    -0.193293   
N15      N      0.751250000000     0.997340000000     0.994390000000    -0.19319    
N16      N      0.906600000000     0.997790000000     0.994330000000    -0.193493   
N17      N      0.995380000000     0.572700000000     0.494840000000    -0.193245   
N18      N      0.995340000000     0.416050000000     0.494280000000    -0.193269   
N19      N      0.995810000000     0.750270000000     0.494870000000    -0.19323    
N20      N      0.996310000000     0.905530000000     0.494450000000    -0.193427   
N21      N      0.995420000000     0.575170000000     0.994730000000    -0.193234   
N22      N      0.995460000000     0.418580000000     0.994250000000    -0.193195   
N23      N      0.994960000000     0.663590000000     0.862070000000    -0.193185   
N24      N      0.994930000000     0.661900000000     0.627710000000    -0.193288   
N25      N      0.996120000000     0.661880000000     0.362050000000    -0.193178   
N26      N      0.995820000000     0.663500000000     0.127700000000    -0.19321    
N27      N      0.995250000000     0.752710000000     0.994980000000    -0.193163   
N28      N      0.994990000000     0.908130000000     0.994670000000    -0.193412   
N29      N      0.417650000000     0.997010000000     0.494140000000    -0.193262   
N30      N      0.574330000000     0.997070000000     0.494610000000    -0.193337   
N31      N      0.240110000000     0.995540000000     0.494930000000    -0.193208   
N32      N      0.084740000000     0.994780000000     0.494670000000    -0.191409   
N33      N      0.417030000000     0.994540000000     0.994700000000    -0.1933     
N34      N      0.573720000000     0.994440000000     0.993270000000    -0.19338    
N35      N      0.329130000000     0.995180000000     0.627400000000    -0.193358   
N36      N      0.328280000000     0.994750000000     0.861810000000    -0.1933     
N37      N      0.328180000000     0.996090000000     0.127440000000    -0.193309   
N38      N      0.328850000000     0.996980000000     0.361800000000    -0.193368   
N39      N      0.239470000000     0.995870000000     0.994620000000    -0.19313    
N40      N      0.084150000000     0.996490000000     0.994560000000    -0.193321   
O1       O      0.328490000000     0.970450000000     0.928150000000    -0.396786   
O2       O      0.327690000000     0.971190000000     0.061580000000    -0.396729   
O3       O      0.283540000000     0.971110000000     0.994880000000    -0.397294   
O4       O      0.372640000000     0.970400000000     0.994680000000    -0.397346   
O5       O      0.373010000000     0.019380000000     0.994650000000    -0.395846   
O6       O      0.283860000000     0.020090000000     0.994310000000    -0.395858   
O7       O      0.328780000000     0.020160000000     0.061010000000    -0.396522   
O8       O      0.328070000000     0.019440000000     0.927760000000    -0.396314   
O9       O      0.327650000000     0.021160000000     0.428330000000    -0.394776   
O10      O      0.329790000000     0.020160000000     0.561740000000    -0.39629    
O11      O      0.373250000000     0.021140000000     0.494340000000    -0.395844   
O12      O      0.284160000000     0.020310000000     0.496680000000    -0.396169   
O13      O      0.284520000000     0.971410000000     0.492850000000    -0.397217   
O14      O      0.373640000000     0.972150000000     0.494520000000    -0.397205   
O15      O      0.328230000000     0.971210000000     0.560780000000    -0.396918   
O16      O      0.329950000000     0.972240000000     0.427570000000    -0.398629   
O17      O      0.020030000000     0.665560000000     0.061380000000    -0.39575    
O18      O      0.019560000000     0.662280000000     0.928120000000    -0.395847   
O19      O      0.019730000000     0.708500000000     0.992370000000    -0.395646   
O20      O      0.019830000000     0.619410000000     0.997190000000    -0.39574    
O21      O      0.970960000000     0.619380000000     0.992470000000    -0.397136   
O22      O      0.970890000000     0.708440000000     0.997510000000    -0.397038   
O23      O      0.970700000000     0.665580000000     0.928370000000    -0.396631   
O24      O      0.971180000000     0.662170000000     0.061670000000    -0.396889   
O25      O      0.020350000000     0.660320000000     0.428490000000    -0.394951   
O26      O      0.019670000000     0.662590000000     0.561840000000    -0.396518   
O27      O      0.019900000000     0.616870000000     0.496980000000    -0.396015   
O28      O      0.020150000000     0.705960000000     0.494140000000    -0.396181   
O29      O      0.971200000000     0.706100000000     0.495630000000    -0.397046   
O30      O      0.971010000000     0.616970000000     0.492780000000    -0.396938   
O31      O      0.970750000000     0.660440000000     0.561250000000    -0.396441   
O32      O      0.971430000000     0.662700000000     0.427950000000    -0.397739   
O33      O      0.660770000000     0.019890000000     0.060940000000    -0.39586    
O34      O      0.662590000000     0.020670000000     0.927600000000    -0.395973   
O35      O      0.617500000000     0.019520000000     0.992460000000    -0.397046   
O36      O      0.706560000000     0.021070000000     0.995880000000    -0.395378   
O37      O      0.707480000000     0.972150000000     0.992810000000    -0.3979     
O38      O      0.618350000000     0.970580000000     0.994890000000    -0.396055   
O39      O      0.662820000000     0.971690000000     0.927140000000    -0.397368   
O40      O      0.663740000000     0.971000000000     0.060440000000    -0.39729    
O41      O      0.663890000000     0.020600000000     0.560260000000    -0.395348   
O42      O      0.663900000000     0.019630000000     0.426930000000    -0.396831   
O43      O      0.618970000000     0.020910000000     0.493060000000    -0.394832   
O44      O      0.708120000000     0.019280000000     0.493210000000    -0.396636   
O45      O      0.707160000000     0.970320000000     0.494500000000    -0.396627   
O46      O      0.618090000000     0.971960000000     0.495300000000    -0.398284   
O47      O      0.662060000000     0.970680000000     0.427740000000    -0.396355   
O48      O      0.662450000000     0.971640000000     0.561100000000    -0.398024   
O49      O      0.997020000000     0.041490000000     0.030930000000    -0.396735   
O50      O      0.993690000000     0.952420000000     0.031140000000    -0.397381   
O51      O      0.039890000000     0.995320000000     0.031090000000    -0.396232   
O52      O      0.950820000000     0.998670000000     0.030990000000    -0.397812   
O53      O      0.950840000000     0.995820000000     0.957850000000    -0.397676   
O54      O      0.039940000000     0.997990000000     0.957930000000    -0.396574   
O55      O      0.996520000000     0.952330000000     0.958000000000    -0.397886   
O56      O      0.994270000000     0.041430000000     0.957780000000    -0.396463   
O57      O      0.994360000000     0.038910000000     0.530730000000    -0.396032   
O58      O      0.997350000000     0.949820000000     0.530940000000    -0.397871   
O59      O      0.040420000000     0.995890000000     0.531050000000    -0.396208   
O60      O      0.951330000000     0.992790000000     0.530610000000    -0.397437   
O61      O      0.951490000000     0.995210000000     0.457430000000    -0.39779    
O62      O      0.040590000000     0.993300000000     0.457880000000    -0.396221   
O63      O      0.995100000000     0.949730000000     0.457750000000    -0.397545   
O64      O      0.996990000000     0.038850000000     0.457570000000    -0.396299   
O65      O      0.019510000000     0.331490000000     0.061120000000    -0.395593   
O66      O      0.020390000000     0.328180000000     0.927830000000    -0.395737   
O67      O      0.019930000000     0.374380000000     0.992000000000    -0.395877   
O68      O      0.020000000000     0.285320000000     0.996890000000    -0.395934   
O69      O      0.971170000000     0.285260000000     0.991400000000    -0.397123   
O70      O      0.971040000000     0.374330000000     0.996370000000    -0.396852   
O71      O      0.971540000000     0.331470000000     0.927210000000    -0.396971   
O72      O      0.970660000000     0.328100000000     0.060480000000    -0.396776   
O73      O      0.970390000000     0.328410000000     0.427940000000    -0.396261   
O74      O      0.971470000000     0.326130000000     0.561290000000    -0.397557   
O75      O      0.970920000000     0.371820000000     0.496450000000    -0.396887   
O76      O      0.970910000000     0.282700000000     0.493600000000    -0.396961   
O77      O      0.019880000000     0.282710000000     0.494630000000    -0.395745   
O78      O      0.019800000000     0.371840000000     0.491950000000    -0.395816   
O79      O      0.020390000000     0.328380000000     0.560360000000    -0.395097   
O80      O      0.019310000000     0.326190000000     0.427040000000    -0.396459   


