data_structure

_audit_creation_method RASPA-1.0
_audit_creation_date 2023-6-5
_audit_author_name 'Poobodin Mano'

_cell_length_a    49.7378
_cell_length_b    49.7149
_cell_length_c    29.7957
_cell_angle_alpha 89.9768
_cell_angle_beta  90.0232
_cell_angle_gamma 119.971
_cell_volume      63824

_symmetry_cell_setting          triclinic
_symmetry_space_group_name_Hall 'P 1'
_symmetry_space_group_name_H-M  'P 1'
_symmetry_Int_Tables_number     1

_symmetry_equiv_pos_as_xyz 'x,y,z'

loop_
_atom_site_label
_atom_site_type_symbol
_atom_site_fract_x
_atom_site_fract_y
_atom_site_fract_z
_atom_site_charge
C1       C      0.888860000000     0.690760000000     0.664630000000     0.407329   
C2       C      0.770230000000     0.639370000000     0.613840000000     0.407944   
C3       C      0.814830000000     0.664930000000     0.725500000000     0.405216   
C4       C      0.844720000000     0.665160000000     0.553150000000     0.407343   
C5       C      0.104780000000     0.800970000000     0.775310000000     0.405969   
C6       C      0.224300000000     0.864790000000     0.822100000000     0.408161   
C7       C      0.179200000000     0.847120000000     0.712670000000     0.408506   
C8       C      0.149690000000     0.818960000000     0.885160000000     0.406918   
C9       C      0.435900000000     0.972210000000     0.947840000000     0.405763   
C10      C      0.555520000000     0.028680000000     0.993930000000     0.405562   
C11      C      0.510340000000     0.002870000000     0.884180000000     0.407484   
C12      C      0.481570000000     0.998460000000     0.057830000000     0.405016   
C13      C      0.219950000000     0.364150000000     0.337850000000     0.408201   
C14      C      0.101140000000     0.302200000000     0.286740000000     0.408217   
C15      C      0.144620000000     0.330620000000     0.397730000000     0.408194   
C16      C      0.176910000000     0.336040000000     0.225550000000     0.405464   
C17      C      0.770300000000     0.132180000000     0.110000000000     0.408213   
C18      C      0.888990000000     0.193950000000     0.161370000000     0.405487   
C19      C      0.846600000000     0.175660000000     0.049290000000     0.407642   
C20      C      0.812840000000     0.150460000000     0.221270000000     0.407732   
C21      C      0.554810000000     0.532340000000     0.500250000000     0.405566   
C22      C      0.436200000000     0.471800000000     0.448530000000     0.406247   
C23      C      0.478840000000     0.488440000000     0.560290000000     0.408481   
C24      C      0.512090000000     0.515540000000     0.388370000000     0.407578   
C25      C      0.129070000000     0.356850000000     0.836690000000     0.405759   
C26      C      0.192990000000     0.301860000000     0.786900000000     0.406159   
C27      C      0.174320000000     0.326580000000     0.898080000000     0.408016   
C28      C      0.147940000000     0.331840000000     0.725630000000     0.405619   
C29      C      0.304890000000     0.199270000000     0.670240000000     0.407352   
C30      C      0.360940000000     0.137430000000     0.614880000000     0.408706   
C31      C      0.338340000000     0.155990000000     0.727540000000     0.407118   
C32      C      0.327090000000     0.180620000000     0.556120000000     0.407372   
C33      C      0.965280000000     0.530100000000     0.987660000000     0.40861    
C34      C      0.018310000000     0.463070000000     0.943810000000     0.407139   
C35      C      0.990760000000     0.482210000000     0.052980000000     0.406195   
C36      C      0.993550000000     0.511370000000     0.879800000000     0.408433   
C37      C      0.638430000000     0.866940000000     0.332220000000     0.405892   
C38      C      0.695330000000     0.804960000000     0.282120000000     0.406481   
C39      C      0.669620000000     0.822880000000     0.393480000000     0.405643   
C40      C      0.663320000000     0.848640000000     0.221100000000     0.407465   
C41      C      0.804430000000     0.699020000000     0.167530000000     0.407952   
C42      C      0.863730000000     0.640560000000     0.112100000000     0.405923   
C43      C      0.845780000000     0.664550000000     0.225080000000     0.404985   
C44      C      0.821620000000     0.675260000000     0.053300000000     0.406591   
C45      C      0.535130000000     0.979610000000     0.442950000000     0.407371   
C46      C      0.472480000000     0.035670000000     0.493710000000     0.40555    
C47      C      0.496600000000     0.016380000000     0.382900000000     0.404273   
C48      C      0.512060000000     0.000010000000     0.555410000000     0.405244   
C49      C      0.303280000000     0.105060000000     0.164500000000     0.405635   
C50      C      0.359930000000     0.224890000000     0.118930000000     0.405575   
C51      C      0.332930000000     0.179310000000     0.228510000000     0.405757   
C52      C      0.330490000000     0.151010000000     0.055280000000     0.405843   
C53      C      0.466520000000     0.437750000000     0.996660000000     0.406885   
C54      C      0.528630000000     0.557840000000     0.952020000000     0.408588   
C55      C      0.509710000000     0.512390000000     0.060870000000     0.406897   
C56      C      0.485210000000     0.483480000000     0.887670000000     0.405788   
C57      C      0.133070000000     0.769260000000     0.321220000000     0.408855   
C58      C      0.194710000000     0.889310000000     0.276220000000     0.408221   
C59      C      0.175320000000     0.844320000000     0.385210000000     0.407375   
C60      C      0.152470000000     0.813610000000     0.212220000000     0.408801   
C61      C      0.023590000000     0.554980000000     0.438960000000     0.405587   
C62      C      0.962530000000     0.437180000000     0.494240000000     0.408993   
C63      C      0.987460000000     0.477910000000     0.380270000000     0.40724    
C64      C      0.998220000000     0.513190000000     0.551760000000     0.406576   
C65      C      0.858820000000     0.222760000000     0.611340000000     0.40617    
C66      C      0.800750000000     0.103230000000     0.658590000000     0.408609   
C67      C      0.817590000000     0.148020000000     0.548820000000     0.406516   
C68      C      0.842160000000     0.178190000000     0.721700000000     0.406198   
C69      C      0.635580000000     0.771860000000     0.832970000000     0.406113   
C70      C      0.694320000000     0.890610000000     0.781990000000     0.405987   
C71      C      0.668900000000     0.847530000000     0.893650000000     0.405735   
C72      C      0.661080000000     0.814930000000     0.721310000000     0.408102   
C73      C      0.797800000000     0.053170000000     0.666960000000     0.103339   
C74      C      0.758550000000     0.062080000000     0.696520000000     0.0712146  
C75      C      0.782740000000     0.023230000000     0.685480000000    -0.0987782  
C76      C      0.756460000000     0.967600000000     0.747400000000    -0.0844991  
C77      C      0.743380000000     0.032530000000     0.715550000000    -0.088814   
C78      C      0.739480000000     0.980960000000     0.730530000000     0.0320594  
C79      C      0.755480000000     0.012680000000     0.710490000000     0.040433   
C80      C      0.741040000000     0.937520000000     0.764930000000     0.0696865  
C81      C      0.692350000000     0.933750000000     0.751060000000     0.0699913  
C82      C      0.707000000000     0.963590000000     0.732770000000    -0.0844306  
C83      C      0.919480000000     0.395650000000     0.534380000000     0.103587   
C84      C      0.960310000000     0.389090000000     0.505220000000     0.0718833  
C85      C      0.905030000000     0.365370000000     0.551510000000    -0.0987055  
C86      C      0.870160000000     0.296490000000     0.567340000000    -0.0843224  
C87      C      0.945960000000     0.358630000000     0.521090000000    -0.0885802  
C88      C      0.902560000000     0.313970000000     0.563030000000     0.0321335  
C89      C      0.918000000000     0.346320000000     0.544850000000     0.0405654  
C90      C      0.856060000000     0.266430000000     0.584730000000     0.0701324  
C91      C      0.905000000000     0.269680000000     0.592520000000     0.0701552  
C92      C      0.919950000000     0.300160000000     0.576420000000    -0.0839505  
C93      C      0.085830000000     0.719630000000     0.328240000000     0.103672   
C94      C      0.133760000000     0.727070000000     0.356460000000     0.0711386  
C95      C      0.070580000000     0.689300000000     0.345290000000    -0.0986477  
C96      C      0.039470000000     0.632030000000     0.402830000000    -0.0840137  
C97      C      0.118960000000     0.697200000000     0.374610000000    -0.0886723  
C98      C      0.070510000000     0.645770000000     0.388830000000     0.0319274  
C99      C      0.086890000000     0.677830000000     0.369510000000     0.0402601  
C100     C      0.024150000000     0.601700000000     0.419420000000     0.0699405  
C101     C      0.069800000000     0.598440000000     0.411210000000     0.0699396  
C102     C      0.085590000000     0.628420000000     0.393340000000    -0.0841554  
C103     C      0.575890000000     0.607360000000     0.943410000000     0.103774   
C104     C      0.527600000000     0.599750000000     0.916560000000     0.071478   
C105     C      0.590910000000     0.637610000000     0.925960000000    -0.0984102  
C106     C      0.621180000000     0.695140000000     0.868450000000    -0.083932   
C107     C      0.542140000000     0.629460000000     0.897960000000    -0.0886322  
C108     C      0.590200000000     0.681000000000     0.882930000000     0.0320837  
C109     C      0.574250000000     0.648940000000     0.902300000000     0.0403779  
C110     C      0.636000000000     0.725480000000     0.851810000000     0.0701619  
C111     C      0.589960000000     0.727910000000     0.860930000000     0.0700478  
C112     C      0.574710000000     0.697970000000     0.878890000000    -0.0841357  
C113     C      0.198920000000     0.939980000000     0.270400000000     0.103461   
C114     C      0.238110000000     0.931010000000     0.240790000000     0.0706859  
C115     C      0.214580000000     0.970300000000     0.253360000000    -0.098978   
C116     C      0.241410000000     0.026670000000     0.193640000000    -0.0845608  
C117     C      0.253980000000     0.961070000000     0.223290000000    -0.0884571  
C118     C      0.258350000000     0.013170000000     0.210100000000     0.0319205  
C119     C      0.242100000000     0.981070000000     0.228940000000     0.0403532  
C120     C      0.256800000000     0.057230000000     0.178040000000     0.0698552  
C121     C      0.305520000000     0.061290000000     0.192650000000     0.0696275  
C122     C      0.290850000000     0.030860000000     0.209010000000    -0.0840492  
C123     C      0.462000000000     0.386990000000     0.003560000000     0.103418   
C124     C      0.423770000000     0.396930000000     0.034450000000     0.0705575  
C125     C      0.446750000000     0.357130000000     0.022260000000    -0.0990336  
C126     C      0.421370000000     0.302490000000     0.085510000000    -0.0847018  
C127     C      0.408310000000     0.367360000000     0.053570000000    -0.0885581  
C128     C      0.404130000000     0.315600000000     0.068830000000     0.0320343  
C129     C      0.419960000000     0.347140000000     0.048180000000     0.0402095  
C130     C      0.406240000000     0.272380000000     0.102890000000     0.0698543  
C131     C      0.357300000000     0.268130000000     0.089550000000     0.0697094  
C132     C      0.371680000000     0.298080000000     0.071530000000    -0.084395   
C133     C      0.634350000000     0.800090000000     0.649450000000     0.103497   
C134     C      0.687640000000     0.814940000000     0.655410000000     0.070392   
C135     C      0.636350000000     0.799380000000     0.602590000000    -0.0989692  
C136     C      0.643660000000     0.787750000000     0.504580000000    -0.0850225  
C137     C      0.690130000000     0.814320000000     0.608850000000    -0.089305   
C138     C      0.667430000000     0.809490000000     0.532070000000     0.0319062  
C139     C      0.664550000000     0.807300000000     0.581770000000     0.0402811  
C140     C      0.645330000000     0.791990000000     0.458130000000     0.0697451  
C141     C      0.694110000000     0.838010000000     0.465080000000     0.0696541  
C142     C      0.693200000000     0.834460000000     0.511670000000    -0.0844972  
C143     C      0.636220000000     0.837880000000     0.149830000000     0.1036     
C144     C      0.689990000000     0.874930000000     0.155100000000     0.0704499  
C145     C      0.637910000000     0.840590000000     0.102990000000    -0.0990819  
C146     C      0.645070000000     0.859280000000     0.004880000000    -0.0848058  
C147     C      0.692200000000     0.878020000000     0.108490000000    -0.0893858  
C148     C      0.668610000000     0.860450000000     0.032050000000     0.0319293  
C149     C      0.666170000000     0.860100000000     0.081790000000     0.0404146  
C150     C      0.646100000000     0.856090000000     0.958440000000     0.0696811  
C151     C      0.693830000000     0.856550000000     0.964820000000     0.0696908  
C152     C      0.693560000000     0.859810000000     0.011350000000    -0.0842555  
C153     C      0.805180000000     0.740960000000     0.209450000000     0.103591   
C154     C      0.758320000000     0.700980000000     0.177680000000     0.0713928  
C155     C      0.789280000000     0.755430000000     0.226100000000    -0.09893    
C156     C      0.756470000000     0.791490000000     0.238930000000    -0.0847088  
C157     C      0.742120000000     0.715390000000     0.193130000000    -0.088426   
C158     C      0.740880000000     0.759070000000     0.234540000000     0.0320469  
C159     C      0.757550000000     0.743080000000     0.217610000000     0.0402898  
C160     C      0.741040000000     0.806250000000     0.255780000000     0.0702165  
C161     C      0.694430000000     0.757990000000     0.262410000000     0.069896   
C162     C      0.709420000000     0.742350000000     0.246740000000    -0.083836   
C163     C      0.578760000000     0.980610000000     0.404690000000     0.102628   
C164     C      0.537440000000     0.933590000000     0.434000000000     0.0703029  
C165     C      0.593230000000     0.964450000000     0.388870000000    -0.098765   
C166     C      0.627510000000     0.929160000000     0.378120000000    -0.0845422  
C167     C      0.551620000000     0.917130000000     0.418960000000    -0.0890578  
C168     C      0.595090000000     0.915190000000     0.378820000000     0.0318471  
C169     C      0.579820000000     0.932450000000     0.395890000000     0.0400888  
C170     C      0.641540000000     0.912880000000     0.361730000000     0.0700551  
C171     C      0.592320000000     0.868840000000     0.347310000000     0.0692738  
C172     C      0.577520000000     0.884650000000     0.362870000000    -0.0844902  
C173     C      0.021130000000     0.541120000000     0.813250000000     0.102467   
C174     C      0.969550000000     0.498580000000     0.808400000000     0.070909   
C175     C      0.022190000000     0.543880000000     0.766340000000    -0.0995257  
C176     C      0.024340000000     0.525910000000     0.668760000000    -0.0850631  
C177     C      0.970040000000     0.501240000000     0.761820000000    -0.0890475  
C178     C      0.998690000000     0.524450000000     0.690500000000     0.0325132  
C179     C      0.996800000000     0.523570000000     0.740210000000     0.0409259  
C180     C      0.024300000000     0.523200000000     0.622110000000     0.0701295  
C181     C      0.974990000000     0.519550000000     0.617790000000     0.0703469  
C182     C      0.974100000000     0.521840000000     0.664410000000    -0.0850869  
C183     C      0.007350000000     0.465960000000     0.312960000000     0.102502   
C184     C      0.961880000000     0.470290000000     0.310390000000     0.0699142  
C185     C      0.007140000000     0.464050000000     0.266020000000    -0.100051   
C186     C      0.014170000000     0.489300000000     0.170790000000    -0.0856737  
C187     C      0.960930000000     0.467810000000     0.263700000000    -0.0890447  
C188     C      0.986350000000     0.467820000000     0.191380000000     0.0322992  
C189     C      0.984360000000     0.465800000000     0.240980000000     0.0404573  
C190     C      0.015350000000     0.493290000000     0.124390000000     0.0699505  
C191     C      0.962570000000     0.453980000000     0.117790000000     0.0694868  
C192     C      0.960410000000     0.449810000000     0.164370000000    -0.0852202  
C193     C      0.920650000000     0.537390000000     0.992050000000     0.103837   
C194     C      0.968580000000     0.573260000000     0.026170000000     0.0711043  
C195     C      0.906700000000     0.553260000000     0.010690000000    -0.0991914  
C196     C      0.877710000000     0.578400000000     0.074650000000    -0.0846137  
C197     C      0.955100000000     0.589360000000     0.045230000000    -0.0886166  
C198     C      0.908420000000     0.595280000000     0.059340000000     0.0320279  
C199     C      0.923640000000     0.579100000000     0.038310000000     0.0405278  
C200     C      0.863270000000     0.593860000000     0.092720000000     0.0698129  
C201     C      0.909120000000     0.642370000000     0.082480000000     0.0700059  
C202     C      0.924190000000     0.627660000000     0.063870000000    -0.0841947  
C203     C      0.365960000000     0.168270000000     0.798860000000     0.102393   
C204     C      0.313340000000     0.128040000000     0.793360000000     0.0702227  
C205     C      0.364520000000     0.164920000000     0.845680000000    -0.0990917  
C206     C      0.358270000000     0.145110000000     0.943770000000    -0.0847672  
C207     C      0.311440000000     0.124290000000     0.839800000000    -0.0895017  
C208     C      0.334120000000     0.142320000000     0.916380000000     0.0318582  
C209     C      0.336880000000     0.143460000000     0.866670000000     0.0401148  
C210     C      0.356210000000     0.146820000000     0.990370000000     0.0693663  
C211     C      0.306540000000     0.142080000000     0.983470000000     0.0698898  
C212     C      0.307780000000     0.140160000000     0.936890000000    -0.0847692  
C213     C      0.299120000000     0.168240000000     0.485300000000     0.103442   
C214     C      0.352200000000     0.207470000000     0.489630000000     0.0703289  
C215     C      0.300360000000     0.170630000000     0.438380000000    -0.0989377  
C216     C      0.306330000000     0.188040000000     0.339480000000    -0.0847566  
C217     C      0.353930000000     0.210290000000     0.443010000000    -0.0893464  
C218     C      0.330530000000     0.191040000000     0.366980000000     0.0320195  
C219     C      0.328130000000     0.191070000000     0.416710000000     0.0403049  
C220     C      0.307920000000     0.185120000000     0.293030000000     0.0696243  
C221     C      0.357230000000     0.189080000000     0.300180000000     0.0699796  
C222     C      0.356440000000     0.192140000000     0.346640000000    -0.0845922  
C223     C      0.363100000000     0.090270000000     0.602450000000     0.103272   
C224     C      0.403790000000     0.139340000000     0.577980000000     0.0713496  
C225     C      0.378780000000     0.075900000000     0.584290000000    -0.098308   
C226     C      0.408260000000     0.047920000000     0.526110000000    -0.0842016  
C227     C      0.419430000000     0.125490000000     0.558890000000    -0.0889867  
C228     C      0.424210000000     0.078370000000     0.542840000000     0.0319804  
C229     C      0.407160000000     0.093380000000     0.561950000000     0.0402526  
C230     C      0.424710000000     0.034000000000     0.509680000000     0.0697016  
C231     C      0.472420000000     0.079960000000     0.523800000000     0.0698885  
C232     C      0.456760000000     0.094290000000     0.541450000000    -0.0844943  
C233     C      0.016290000000     0.418210000000     0.907410000000     0.102139   
C234     C      0.063350000000     0.458660000000     0.937970000000     0.070115   
C235     C      0.031980000000     0.402980000000     0.892640000000    -0.0983961  
C236     C      0.066590000000     0.367670000000     0.882160000000    -0.0843529  
C237     C      0.079300000000     0.443740000000     0.923920000000    -0.0889406  
C238     C      0.080780000000     0.400140000000     0.883430000000     0.0318892  
C239     C      0.063780000000     0.415700000000     0.900480000000     0.040042   
C240     C      0.082860000000     0.353570000000     0.865710000000     0.0696215  
C241     C      0.127070000000     0.402820000000     0.852130000000     0.0696472  
C242     C      0.111360000000     0.417660000000     0.867790000000    -0.0845631  
C243     C      0.306190000000     0.242380000000     0.710610000000     0.102835   
C244     C      0.259070000000     0.201820000000     0.680290000000     0.0704477  
C245     C      0.290260000000     0.256890000000     0.727200000000    -0.0986071  
C246     C      0.255340000000     0.291530000000     0.739870000000    -0.0844833  
C247     C      0.242850000000     0.216020000000     0.696200000000    -0.0888328  
C248     C      0.241300000000     0.259090000000     0.738290000000     0.0321097  
C249     C      0.258340000000     0.243870000000     0.720150000000     0.0401654  
C250     C      0.239090000000     0.305420000000     0.757060000000     0.0701244  
C251     C      0.195150000000     0.256020000000     0.770850000000     0.0698478  
C252     C      0.210870000000     0.241360000000     0.754420000000    -0.0846135  
C253     C      0.463210000000     0.499050000000     0.632420000000     0.10366    
C254     C      0.478640000000     0.461060000000     0.625350000000     0.070797   
C255     C      0.462170000000     0.495640000000     0.679180000000    -0.0990569  
C256     C      0.450170000000     0.475060000000     0.776690000000    -0.0851169  
C257     C      0.477730000000     0.457290000000     0.671790000000    -0.0894061  
C258     C      0.472350000000     0.474040000000     0.748960000000     0.0319603  
C259     C      0.470270000000     0.475290000000     0.699360000000     0.040525   
C260     C      0.454250000000     0.477050000000     0.823180000000     0.0696295  
C261     C      0.501070000000     0.475820000000     0.815640000000     0.0695221  
C262     C      0.497650000000     0.473710000000     0.769050000000    -0.084724   
C263     C      0.519740000000     0.546250000000     0.320650000000     0.102623   
C264     C      0.522130000000     0.499680000000     0.318530000000     0.070215   
C265     C      0.521800000000     0.548060000000     0.273700000000    -0.0995998  
C266     C      0.499320000000     0.528630000000     0.177430000000    -0.0849901  
C267     C      0.524700000000     0.501350000000     0.271930000000    -0.0892908  
C268     C      0.522160000000     0.524920000000     0.199270000000     0.0321925  
C269     C      0.523570000000     0.525170000000     0.248940000000     0.0404344  
C270     C      0.495950000000     0.525080000000     0.130970000000     0.0703814  
C271     C      0.538410000000     0.516040000000     0.126910000000     0.0700952  
C272     C      0.542130000000     0.519000000000     0.173460000000    -0.0851729  
C273     C      0.862230000000     0.164090000000     0.977930000000     0.103323   
C274     C      0.847780000000     0.202880000000     0.983490000000     0.0701023  
C275     C      0.863670000000     0.167190000000     0.931110000000    -0.0991282  
C276     C      0.829630000000     0.189460000000     0.839680000000    -0.0846096  
C277     C      0.849100000000     0.206360000000     0.936970000000    -0.08957    
C278     C      0.854530000000     0.188730000000     0.860420000000     0.0319335  
C279     C      0.856260000000     0.187810000000     0.910120000000     0.0402908  
C280     C      0.826410000000     0.186970000000     0.793090000000     0.0698113  
C281     C      0.872670000000     0.184580000000     0.786750000000     0.0698254  
C282     C      0.876550000000     0.186920000000     0.833280000000    -0.0850312  
C283     C      0.796560000000     0.161520000000     0.292560000000     0.103319   
C284     C      0.812180000000     0.123590000000     0.287170000000     0.0707276  
C285     C      0.795120000000     0.158430000000     0.339390000000    -0.0989311  
C286     C      0.830410000000     0.137560000000     0.430670000000    -0.0845962  
C287     C      0.810870000000     0.120130000000     0.333670000000    -0.0894679  
C288     C      0.805060000000     0.137520000000     0.410130000000     0.032228   
C289     C      0.803150000000     0.138290000000     0.360440000000     0.0405098  
C290     C      0.833700000000     0.140040000000     0.477240000000     0.0703118  
C291     C      0.786660000000     0.140940000000     0.483960000000     0.0700299  
C292     C      0.782720000000     0.138610000000     0.437430000000    -0.0848817  
C293     C      0.138030000000     0.354540000000     0.465330000000     0.102909   
C294     C      0.134780000000     0.305190000000     0.467990000000     0.070509   
C295     C      0.136020000000     0.354500000000     0.512280000000    -0.0993071  
C296     C      0.158160000000     0.357870000000     0.608700000000    -0.0848569  
C297     C      0.132330000000     0.304560000000     0.514630000000    -0.0890085  
C298     C      0.135330000000     0.331200000000     0.587080000000     0.0320208  
C299     C      0.133870000000     0.329790000000     0.537360000000     0.0405013  
C300     C      0.161500000000     0.357960000000     0.655210000000     0.0701147  
C301     C      0.119050000000     0.306520000000     0.659810000000     0.0695309  
C302     C      0.115340000000     0.305490000000     0.613210000000    -0.0849291  
C303     C      0.163950000000     0.300130000000     0.970030000000     0.103528   
C304     C      0.201280000000     0.353750000000     0.963420000000     0.0703114  
C305     C      0.167230000000     0.302300000000     0.016810000000    -0.0989292  
C306     C      0.186800000000     0.310300000000     0.114660000000    -0.084942   
C307     C      0.204960000000     0.356410000000     0.009930000000    -0.0891381  
C308     C      0.188180000000     0.333750000000     0.087020000000     0.0318756  
C309     C      0.187210000000     0.330730000000     0.037310000000     0.0401931  
C310     C      0.184240000000     0.312000000000     0.161140000000     0.0693898  
C311     C      0.185800000000     0.360240000000     0.153840000000     0.0695811  
C312     C      0.188420000000     0.359290000000     0.107280000000    -0.0847165  
C313     C      0.051350000000     0.254880000000     0.277960000000     0.103151   
C314     C      0.060000000000     0.302850000000     0.247950000000     0.0707258  
C315     C      0.021520000000     0.239780000000     0.259090000000    -0.0986256  
C316     C      0.966250000000     0.209900000000     0.196680000000    -0.0846414  
C317     C      0.030530000000     0.288260000000     0.228600000000    -0.0886573  
C318     C      0.979240000000     0.240260000000     0.213280000000     0.0322661  
C319     C      0.010870000000     0.256280000000     0.233690000000     0.03979    
C320     C      0.936210000000     0.194880000000     0.178980000000     0.0693985  
C321     C      0.931760000000     0.239490000000     0.192080000000     0.0698483  
C322     C      0.961560000000     0.255050000000     0.210510000000    -0.0843034  
C323     C      0.262010000000     0.407860000000     0.376120000000     0.103942   
C324     C      0.268350000000     0.366770000000     0.347470000000     0.0714784  
C325     C      0.292640000000     0.422820000000     0.391900000000    -0.0986979  
C326     C      0.361680000000     0.458620000000     0.405030000000    -0.0841182  
C327     C      0.299160000000     0.381630000000     0.361970000000    -0.0882706  
C328     C      0.344590000000     0.426130000000     0.401400000000     0.0319868  
C329     C      0.311810000000     0.410030000000     0.384710000000     0.0403822  
C330     C      0.391940000000     0.473340000000     0.421720000000     0.0703284  
C331     C      0.389870000000     0.424950000000     0.429600000000     0.0700682  
C332     C      0.359190000000     0.409360000000     0.414240000000    -0.0836462  
C333     C      0.526910000000     0.029740000000     0.812640000000     0.103428   
C334     C      0.508450000000     0.975570000000     0.818010000000     0.0701372  
C335     C      0.528430000000     0.028020000000     0.765860000000    -0.0989882  
C336     C      0.543060000000     0.021030000000     0.669460000000    -0.0849967  
C337     C      0.509790000000     0.973350000000     0.771430000000    -0.0890029  
C338     C      0.519100000000     0.997650000000     0.694860000000     0.0318256  
C339     C      0.519340000000     0.999650000000     0.744690000000     0.0402215  
C340     C      0.540880000000     0.020740000000     0.622760000000     0.0698095  
C341     C      0.492590000000     0.973840000000     0.625240000000     0.0692117  
C342     C      0.494040000000     0.973410000000     0.672120000000    -0.0843418  
C343     C      0.468480000000     0.990580000000     0.322090000000     0.0648986  
C344     C      0.510860000000     0.040970000000     0.309020000000     0.0730522  
C345     C      0.461640000000     0.984830000000     0.276550000000    -0.0847675  
C346     C      0.473390000000     0.977120000000     0.176940000000    -0.0858981  
C347     C      0.504840000000     0.037020000000     0.262840000000    -0.0861456  
C348     C      0.476060000000     0.003830000000     0.196930000000     0.0348735  
C349     C      0.480370000000     0.008660000000     0.246120000000     0.0319567  
C350     C      0.474010000000     0.975080000000     0.130160000000     0.0696918  
C351     C      0.477580000000     0.024240000000     0.122640000000     0.070047   
C352     C      0.477330000000     0.027150000000     0.169200000000    -0.086697   
C353     C      0.720690000000     0.085100000000     0.099990000000     0.103297   
C354     C      0.729070000000     0.133730000000     0.073310000000     0.0713299  
C355     C      0.690420000000     0.070520000000     0.082610000000    -0.0982103  
C356     C      0.632000000000     0.041140000000     0.026760000000    -0.0839747  
C357     C      0.699390000000     0.119630000000     0.054770000000    -0.0887118  
C358     C      0.647130000000     0.072280000000     0.040750000000     0.0318945  
C359     C      0.679410000000     0.087610000000     0.059310000000     0.0401282  
C360     C      0.601430000000     0.026940000000     0.011120000000     0.0699814  
C361     C      0.600680000000     0.073870000000     0.020180000000     0.0699271  
C362     C      0.630870000000     0.088540000000     0.037180000000    -0.0842301  
C363     C      0.183120000000     0.876830000000     0.645240000000     0.102563   
C364     C      0.190540000000     0.833160000000     0.642310000000     0.0701026  
C365     C      0.184800000000     0.878850000000     0.598290000000    -0.0996721  
C366     C      0.163170000000     0.858800000000     0.501850000000    -0.0850297  
C367     C      0.192710000000     0.835080000000     0.595720000000    -0.0895079  
C368     C      0.187370000000     0.857350000000     0.523520000000     0.0320807  
C369     C      0.188920000000     0.857520000000     0.573150000000     0.0403935  
C370     C      0.159920000000     0.855190000000     0.455380000000     0.0703605  
C371     C      0.205010000000     0.850480000000     0.451070000000     0.069852   
C372     C      0.208720000000     0.853640000000     0.497560000000    -0.0854649  
C373     C      0.164560000000     0.798300000000     0.140860000000     0.103313   
C374     C      0.124750000000     0.811330000000     0.146470000000     0.0707437  
C375     C      0.161230000000     0.796510000000     0.094080000000    -0.0991158  
C376     C      0.142180000000     0.783830000000     0.995920000000    -0.0848823  
C377     C      0.120950000000     0.809510000000     0.100040000000    -0.0897102  
C378     C      0.139050000000     0.804910000000     0.023510000000     0.032282   
C379     C      0.139950000000     0.802990000000     0.073160000000     0.0405655  
C380     C      0.144570000000     0.788180000000     0.949450000000     0.0701154  
C381     C      0.139600000000     0.832980000000     0.956860000000     0.0704025  
C382     C      0.137080000000     0.829300000000     0.003310000000    -0.084907   
C383     C      0.275340000000     0.870190000000     0.829480000000     0.103612   
C384     C      0.264450000000     0.907760000000     0.860500000000     0.070955   
C385     C      0.304970000000     0.885610000000     0.848810000000    -0.0991713  
C386     C      0.358580000000     0.910750000000     0.913660000000    -0.0848091  
C387     C      0.293820000000     0.923410000000     0.880210000000    -0.0886344  
C388     C      0.345590000000     0.928000000000     0.896590000000     0.0320499  
C389     C      0.314340000000     0.912120000000     0.875150000000     0.0404028  
C390     C      0.388530000000     0.925890000000     0.931530000000     0.0697512  
C391     C      0.392790000000     0.974850000000     0.918000000000     0.069736   
C392     C      0.362970000000     0.960450000000     0.899520000000    -0.0844555  
C393     C      0.834350000000     0.702440000000     0.981510000000     0.10234    
C394     C      0.792930000000     0.650430000000     0.987860000000     0.0698345  
C395     C      0.830740000000     0.700780000000     0.934700000000    -0.0985     
C396     C      0.803210000000     0.643050000000     0.844250000000    -0.0848174  
C397     C      0.788870000000     0.648340000000     0.941450000000    -0.0892192  
C398     C      0.806950000000     0.670170000000     0.864380000000     0.0317819  
C399     C      0.808480000000     0.673320000000     0.914110000000     0.039908   
C400     C      0.804760000000     0.641300000000     0.797670000000     0.0692514  
C401     C      0.812250000000     0.692040000000     0.789960000000     0.0691904  
C402     C      0.810910000000     0.694620000000     0.836560000000    -0.084696   
C403     C      0.849290000000     0.639280000000     0.486230000000     0.102342   
C404     C      0.856650000000     0.690300000000     0.482510000000     0.069967   
C405     C      0.851700000000     0.638960000000     0.439330000000    -0.0990924  
C406     C      0.832260000000     0.637350000000     0.341570000000    -0.0847975  
C407     C      0.859550000000     0.690570000000     0.435970000000    -0.0889122  
C408     C      0.855740000000     0.663160000000     0.363970000000     0.0317705  
C409     C      0.856250000000     0.664430000000     0.413750000000     0.0400921  
C410     C      0.829870000000     0.637780000000     0.294910000000     0.0696237  
C411     C      0.874550000000     0.687890000000     0.291780000000     0.0685095  
C412     C      0.877370000000     0.688390000000     0.338490000000    -0.0854227  
C413     C      0.728380000000     0.642230000000     0.575660000000     0.102625   
C414     C      0.720820000000     0.594590000000     0.605480000000     0.0706413  
C415     C      0.697760000000     0.626940000000     0.559670000000    -0.098337   
C416     C      0.628120000000     0.593320000000     0.547710000000    -0.0845003  
C417     C      0.690230000000     0.579020000000     0.590180000000    -0.0886896  
C418     C      0.645950000000     0.578650000000     0.548830000000     0.0319346  
C419     C      0.678320000000     0.595070000000     0.566620000000     0.040211   
C420     C      0.597940000000     0.577690000000     0.530670000000     0.069777   
C421     C      0.602160000000     0.533090000000     0.516200000000     0.0694322  
C422     C      0.632570000000     0.548180000000     0.532490000000    -0.0843555  
C423     C      0.931000000000     0.688330000000     0.702610000000     0.102629   
C424     C      0.938170000000     0.735680000000     0.672200000000     0.0706986  
C425     C      0.961660000000     0.703890000000     0.718480000000    -0.098658   
C426     C      0.031530000000     0.738520000000     0.729910000000    -0.0842112  
C427     C      0.968750000000     0.751500000000     0.687370000000    -0.0891885  
C428     C      0.013190000000     0.752630000000     0.728990000000     0.0315205  
C429     C      0.980850000000     0.735770000000     0.711240000000     0.04073    
C430     C      0.061870000000     0.754790000000     0.746310000000     0.0698156  
C431     C      0.056620000000     0.798810000000     0.760860000000     0.0694798  
C432     C      0.026090000000     0.783080000000     0.745180000000    -0.0844591  
Cu1      Cu     0.832690000000     0.691020000000     0.634620000000     0.845055   
Cu2      Cu     0.826390000000     0.639040000000     0.644040000000     0.847964   
Cu3      Cu     0.162440000000     0.856460000000     0.803600000000     0.847949   
Cu4      Cu     0.166450000000     0.809370000000     0.794410000000     0.849756   
Cu5      Cu     0.497200000000     0.025850000000     0.967650000000     0.848817   
Cu6      Cu     0.494150000000     0.975000000000     0.974350000000     0.841845   
Cu7      Cu     0.160890000000     0.357930000000     0.307420000000     0.848543   
Cu8      Cu     0.160610000000     0.308540000000     0.315670000000     0.843522   
Cu9      Cu     0.828480000000     0.187140000000     0.137990000000     0.848306   
Cu10     Cu     0.830990000000     0.139050000000     0.132590000000     0.846488   
Cu11     Cu     0.494390000000     0.526060000000     0.477980000000     0.850172   
Cu12     Cu     0.496630000000     0.477900000000     0.470770000000     0.843883   
Cu13     Cu     0.137410000000     0.303700000000     0.815350000000     0.845465   
Cu14     Cu     0.184640000000     0.354960000000     0.808360000000     0.847596   
Cu15     Cu     0.307480000000     0.144330000000     0.639730000000     0.845828   
Cu16     Cu     0.358050000000     0.192380000000     0.643920000000     0.850136   
Cu17     Cu     0.966140000000     0.473700000000     0.961090000000     0.846565   
Cu18     Cu     0.017790000000     0.519570000000     0.971850000000     0.846759   
Cu19     Cu     0.641380000000     0.811770000000     0.303990000000     0.846326   
Cu20     Cu     0.692060000000     0.859770000000     0.310570000000     0.848705   
Cu21     Cu     0.809480000000     0.644740000000     0.141520000000     0.844792   
Cu22     Cu     0.858280000000     0.694800000000     0.136840000000     0.849819   
Cu23     Cu     0.479440000000     0.982190000000     0.468840000000     0.844048   
Cu24     Cu     0.528330000000     0.033100000000     0.468760000000     0.853432   
Cu25     Cu     0.357090000000     0.166640000000     0.146060000000     0.845573   
Cu26     Cu     0.306200000000     0.163410000000     0.137800000000     0.847255   
Cu27     Cu     0.521530000000     0.496600000000     0.970860000000     0.847533   
Cu28     Cu     0.473440000000     0.499050000000     0.977740000000     0.847505   
Cu29     Cu     0.188200000000     0.828290000000     0.296160000000     0.846776   
Cu30     Cu     0.139770000000     0.830190000000     0.301260000000     0.849239   
Cu31     Cu     0.017710000000     0.495890000000     0.468540000000     0.847803   
Cu32     Cu     0.968310000000     0.495960000000     0.463440000000     0.846907   
Cu33     Cu     0.854430000000     0.162850000000     0.631670000000     0.846485   
Cu34     Cu     0.805310000000     0.163350000000     0.638840000000     0.848988   
Cu35     Cu     0.690120000000     0.832040000000     0.810560000000     0.844192   
Cu36     Cu     0.639940000000     0.830470000000     0.804550000000     0.849059   
H1       H      0.755120000000     0.928060000000     0.777260000000     0.0262124  
H2       H      0.748330000000     0.076590000000     0.702450000000     0.0268872  
H3       H      0.692790000000     0.972620000000     0.719610000000     0.051172   
H4       H      0.722540000000     0.025640000000     0.734970000000     0.0522809  
H5       H      0.781590000000     0.980310000000     0.747350000000     0.0504596  
H6       H      0.792020000000     0.007940000000     0.679360000000     0.056129   
H7       H      0.667190000000     0.921130000000     0.751590000000     0.0268279  
H8       H      0.856680000000     0.075900000000     0.658370000000     0.0402574  
H9       H      0.830950000000     0.253840000000     0.587110000000     0.0263738  
H10      H      0.981850000000     0.397380000000     0.486800000000     0.0255155  
H11      H      0.945040000000     0.312760000000     0.574960000000     0.0510729  
H12      H      0.956750000000     0.344820000000     0.514110000000     0.052199   
H13      H      0.855470000000     0.305600000000     0.556630000000     0.0502532  
H14      H      0.884110000000     0.357180000000     0.571290000000     0.0560082  
H15      H      0.919360000000     0.259900000000     0.602150000000     0.0266858  
H16      H      0.881470000000     0.415100000000     0.516530000000     0.0402643  
H17      H      0.000110000000     0.592020000000     0.429450000000     0.0264692  
H18      H      0.158540000000     0.741260000000     0.362260000000     0.0253092  
H19      H      0.109310000000     0.637520000000     0.382370000000     0.0501901  
H20      H      0.132730000000     0.689800000000     0.393450000000     0.0512225  
H21      H      0.026900000000     0.644580000000     0.401390000000     0.0506558  
H22      H      0.046040000000     0.674520000000     0.338600000000     0.0563876  
H23      H      0.082370000000     0.585880000000     0.413700000000     0.0267367  
H24      H      0.050590000000     0.743580000000     0.321450000000     0.0411175  
H25      H      0.660010000000     0.735520000000     0.841430000000     0.0265379  
H26      H      0.502760000000     0.585530000000     0.911390000000     0.0256325  
H27      H      0.551050000000     0.688620000000     0.890320000000     0.0502899  
H28      H      0.528090000000     0.636660000000     0.879450000000     0.0514032  
H29      H      0.634070000000     0.682910000000     0.869560000000     0.05071    
H30      H      0.615530000000     0.652430000000     0.931940000000     0.0564323  
H31      H      0.577040000000     0.740130000000     0.858860000000     0.0265449  
H32      H      0.611120000000     0.583330000000     0.948790000000     0.0411649  
H33      H      0.242650000000     0.066720000000     0.166090000000     0.026379   
H34      H      0.248050000000     0.916300000000     0.234410000000     0.0270288  
H35      H      0.305000000000     0.021630000000     0.221730000000     0.0509629  
H36      H      0.275130000000     0.968230000000     0.204490000000     0.0521085  
H37      H      0.216290000000     0.013740000000     0.192670000000     0.0504864  
H38      H      0.205530000000     0.985700000000     0.260180000000     0.0564017  
H39      H      0.330680000000     0.074230000000     0.193070000000     0.0268389  
H40      H      0.140110000000     0.918130000000     0.278260000000     0.0400622  
H41      H      0.420570000000     0.263100000000     0.114860000000     0.0264231  
H42      H      0.414090000000     0.411860000000     0.040790000000     0.0268773  
H43      H      0.357310000000     0.307040000000     0.058740000000     0.0509543  
H44      H      0.387710000000     0.360770000000     0.073440000000     0.0521139  
H45      H      0.446500000000     0.315360000000     0.085210000000     0.0511026  
H46      H      0.455510000000     0.341470000000     0.015640000000     0.0564458  
H47      H      0.332140000000     0.255280000000     0.090250000000     0.0268328  
H48      H      0.482960000000     0.386750000000     0.924780000000     0.0385006  
H49      H      0.626070000000     0.774910000000     0.438270000000     0.0266624  
H50      H      0.708570000000     0.821530000000     0.674560000000     0.0267702  
H51      H      0.712050000000     0.851910000000     0.531640000000     0.051241   
H52      H      0.712220000000     0.819840000000     0.594140000000     0.0517766  
H53      H      0.623610000000     0.767760000000     0.518870000000     0.0508638  
H54      H      0.615960000000     0.793310000000     0.582410000000     0.0566588  
H55      H      0.714090000000     0.858140000000     0.450840000000     0.0266675  
H56      H      0.591800000000     0.811580000000     0.675480000000     0.0409246  
H57      H      0.627030000000     0.854590000000     0.938840000000     0.0265219  
H58      H      0.711190000000     0.888620000000     0.174040000000     0.0264006  
H59      H      0.712190000000     0.860490000000     0.031080000000     0.0513986  
H60      H      0.714380000000     0.893980000000     0.093450000000     0.0518758  
H61      H      0.625650000000     0.860310000000     0.019430000000     0.0504449  
H62      H      0.617190000000     0.826850000000     0.083130000000     0.0570193  
H63      H      0.713170000000     0.855270000000     0.950380000000     0.0268072  
H64      H      0.585640000000     0.833070000000     0.180240000000     0.0375333  
H65      H      0.754180000000     0.831350000000     0.258430000000     0.0262764  
H66      H      0.745390000000     0.679770000000     0.158430000000     0.0254854  
H67      H      0.696370000000     0.717260000000     0.244840000000     0.0507286  
H68      H      0.717720000000     0.704980000000     0.185090000000     0.05208    
H69      H      0.780470000000     0.805710000000     0.228890000000     0.0506328  
H70      H      0.801720000000     0.775930000000     0.246830000000     0.0559512  
H71      H      0.670120000000     0.744180000000     0.271360000000     0.0266846  
H72      H      0.845420000000     0.743620000000     0.266220000000     0.0384426  
H73      H      0.666690000000     0.924660000000     0.362120000000     0.027146   
H74      H      0.515710000000     0.920480000000     0.451990000000     0.0253402  
H75      H      0.552420000000     0.873010000000     0.361860000000     0.0498621  
H76      H      0.540550000000     0.892500000000     0.425980000000     0.0513203  
H77      H      0.642160000000     0.952460000000     0.390810000000     0.0515567  
H78      H      0.614550000000     0.976840000000     0.369810000000     0.0565113  
H79      H      0.577820000000     0.845270000000     0.335410000000     0.0259424  
H80      H      0.585330000000     0.023000000000     0.349000000000     0.0392142  
H81      H      0.044210000000     0.523490000000     0.606750000000     0.0267979  
H82      H      0.948280000000     0.480280000000     0.823060000000     0.0278129  
H83      H      0.954050000000     0.521060000000     0.679990000000     0.0515704  
H84      H      0.949830000000     0.485010000000     0.742740000000     0.0531555  
H85      H      0.043780000000     0.527830000000     0.687790000000     0.051751   
H86      H      0.042980000000     0.561830000000     0.750140000000     0.0567249  
H87      H      0.955130000000     0.516880000000     0.598980000000     0.0270692  
H88      H      0.074920000000     0.557410000000     0.846150000000     0.0394776  
H89      H      0.037230000000     0.510710000000     0.110030000000     0.0264882  
H90      H      0.943740000000     0.473070000000     0.326030000000     0.0272936  
H91      H      0.938540000000     0.432810000000     0.179180000000     0.0510331  
H92      H      0.942730000000     0.469020000000     0.245400000000     0.0528032  
H93      H      0.034690000000     0.503780000000     0.190600000000     0.0524077  
H94      H      0.024890000000     0.461330000000     0.248930000000     0.0568971  
H95      H      0.941870000000     0.439910000000     0.098050000000     0.0261057  
H96      H      0.024220000000     0.429910000000     0.349580000000     0.0383797  
H97      H      0.839400000000     0.579820000000     0.103710000000     0.0262782  
H98      H      0.992820000000     0.581700000000     0.033820000000     0.0268888  
H99      H      0.947840000000     0.641740000000     0.052160000000     0.0514008  
H100     H      0.969200000000     0.609240000000     0.066350000000     0.0524023  
H101     H      0.864780000000     0.553280000000     0.072850000000     0.0505545  
H102     H      0.882680000000     0.545710000000     0.002810000000     0.0564137  
H103     H      0.922110000000     0.667490000000     0.084740000000     0.0275176  
H104     H      0.881850000000     0.479730000000     0.976850000000     0.0403462  
H105     H      0.375690000000     0.149580000000     0.010260000000     0.0265101  
H106     H      0.292460000000     0.113070000000     0.774500000000     0.0273597  
H107     H      0.288640000000     0.138200000000     0.917010000000     0.051243   
H108     H      0.289820000000     0.106790000000     0.854630000000     0.051995   
H109     H      0.378830000000     0.146330000000     0.929310000000     0.0504134  
H110     H      0.384810000000     0.179730000000     0.865740000000     0.0565485  
H111     H      0.286010000000     0.141080000000     0.997730000000     0.0266564  
H112     H      0.418670000000     0.179240000000     0.767680000000     0.0385067  
H113     H      0.288430000000     0.182300000000     0.273110000000     0.0264304  
H114     H      0.373320000000     0.222240000000     0.508140000000     0.0267597  
H115     H      0.375570000000     0.194160000000     0.366600000000     0.0513014  
H116     H      0.375670000000     0.227060000000     0.427640000000     0.0518688  
H117     H      0.286090000000     0.187600000000     0.353740000000     0.0504535  
H118     H      0.279770000000     0.155890000000     0.418840000000     0.0568873  
H119     H      0.377460000000     0.189340000000     0.286090000000     0.0267458  
H120     H      0.247500000000     0.160460000000     0.516390000000     0.0374759  
H121     H      0.411410000000     0.010360000000     0.497430000000     0.0255736  
H122     H      0.414330000000     0.164290000000     0.573990000000     0.0256536  
H123     H      0.470340000000     0.117560000000     0.554740000000     0.0502244  
H124     H      0.440920000000     0.140110000000     0.541220000000     0.0512628  
H125     H      0.383150000000     0.034790000000     0.525330000000     0.0506256  
H126     H      0.369110000000     0.051140000000     0.588850000000     0.0564503  
H127     H      0.497580000000     0.093170000000     0.523830000000     0.0264403  
H128     H      0.303850000000     0.054670000000     0.605090000000     0.0416563  
H129     H      0.071010000000     0.328410000000     0.865670000000     0.0264411  
H130     H      0.076700000000     0.480330000000     0.956050000000     0.0260934  
H131     H      0.123130000000     0.442780000000     0.867080000000     0.050398   
H132     H      0.103760000000     0.454220000000     0.931740000000     0.0513393  
H133     H      0.043180000000     0.353080000000     0.894430000000     0.0506665  
H134     H      0.019410000000     0.381630000000     0.873650000000     0.0564542  
H135     H      0.150700000000     0.417370000000     0.840530000000     0.0263217  
H136     H      0.958800000000     0.380560000000     0.925200000000     0.0398497  
H137     H      0.250840000000     0.330580000000     0.757260000000     0.0270377  
H138     H      0.245860000000     0.180390000000     0.661610000000     0.0257518  
H139     H      0.199220000000     0.216250000000     0.754840000000     0.0504258  
H140     H      0.218250000000     0.205270000000     0.689180000000     0.0514129  
H141     H      0.278610000000     0.306280000000     0.727220000000     0.0516319  
H142     H      0.302760000000     0.277910000000     0.746900000000     0.0566914  
H143     H      0.171610000000     0.241350000000     0.782770000000     0.026544   
H144     H      0.348200000000     0.247630000000     0.766010000000     0.0403203  
H145     H      0.436810000000     0.478430000000     0.843280000000     0.0265314  
H146     H      0.485570000000     0.447140000000     0.605800000000     0.0269995  
H147     H      0.515440000000     0.473100000000     0.748850000000     0.0512212  
H148     H      0.483410000000     0.440690000000     0.686030000000     0.0521253  
H149     H      0.429950000000     0.474770000000     0.762570000000     0.0510331  
H150     H      0.455730000000     0.509490000000     0.699800000000     0.0566918  
H151     H      0.521450000000     0.476350000000     0.829660000000     0.0264455  
H152     H      0.474310000000     0.553270000000     0.607960000000     0.0410141  
H153     H      0.477450000000     0.527380000000     0.115570000000     0.0268432  
H154     H      0.522200000000     0.480060000000     0.334310000000     0.0274328  
H155     H      0.560270000000     0.516280000000     0.189200000000     0.0512281  
H156     H      0.526180000000     0.483210000000     0.253910000000     0.0529485  
H157     H      0.483300000000     0.533050000000     0.196290000000     0.0523076  
H158     H      0.521810000000     0.567260000000     0.256380000000     0.0569326  
H159     H      0.554040000000     0.510950000000     0.108220000000     0.0270061  
H160     H      0.548670000000     0.600180000000     0.357460000000     0.0389577  
H161     H      0.806310000000     0.186780000000     0.778590000000     0.0265966  
H162     H      0.841080000000     0.217210000000     0.002470000000     0.0264574  
H163     H      0.896460000000     0.186860000000     0.847920000000     0.0504297  
H164     H      0.843940000000     0.223160000000     0.922100000000     0.0517087  
H165     H      0.811960000000     0.190660000000     0.859400000000     0.0512006  
H166     H      0.869890000000     0.152920000000     0.911080000000     0.0569116  
H167     H      0.889940000000     0.182580000000     0.767110000000     0.0264183  
H168     H      0.906120000000     0.156190000000     0.008600000000     0.0375875  
H169     H      0.854110000000     0.140810000000     0.491560000000     0.0270534  
H170     H      0.819320000000     0.109570000000     0.268300000000     0.0270701  
H171     H      0.762500000000     0.138100000000     0.422920000000     0.0509175  
H172     H      0.816500000000     0.103680000000     0.348600000000     0.0521577  
H173     H      0.848330000000     0.136940000000     0.410820000000     0.0516837  
H174     H      0.788440000000     0.172360000000     0.359380000000     0.0570533  
H175     H      0.769120000000     0.142350000000     0.503760000000     0.0268007  
H176     H      0.752080000000     0.168340000000     0.261640000000     0.0384044  
H177     H      0.180020000000     0.378850000000     0.670400000000     0.026718   
H178     H      0.134270000000     0.285240000000     0.452400000000     0.0275519  
H179     H      0.097180000000     0.284550000000     0.597700000000     0.0510271  
H180     H      0.130590000000     0.284900000000     0.532870000000     0.0527915  
H181     H      0.174190000000     0.378190000000     0.589650000000     0.0517814  
H182     H      0.136470000000     0.373990000000     0.529360000000     0.0567384  
H183     H      0.103420000000     0.285920000000     0.678720000000     0.0264336  
H184     H      0.170830000000     0.409990000000     0.434470000000     0.0401908  
H185     H      0.182520000000     0.292980000000     0.181140000000     0.0263056  
H186     H      0.214950000000     0.374740000000     0.944030000000     0.0267392  
H187     H      0.189290000000     0.377880000000     0.087230000000     0.0510642  
H188     H      0.221290000000     0.378700000000     0.024350000000     0.0518209  
H189     H      0.187180000000     0.290440000000     0.100470000000     0.050762   
H190     H      0.153540000000     0.281840000000     0.037200000000     0.0565087  
H191     H      0.185180000000     0.380030000000     0.167910000000     0.0264877  
H192     H      0.110150000000     0.256470000000     0.945180000000     0.0407762  
H193     H      0.927060000000     0.171320000000     0.166910000000     0.0260051  
H194     H      0.074380000000     0.327590000000     0.242000000000     0.0267682  
H195     H      0.970310000000     0.278320000000     0.223380000000     0.0511533  
H196     H      0.023560000000     0.302060000000     0.208930000000     0.0518081  
H197     H      0.979190000000     0.197700000000     0.197100000000     0.0503244  
H198     H      0.006380000000     0.215200000000     0.265260000000     0.0559914  
H199     H      0.918870000000     0.251780000000     0.191170000000     0.0273675  
H200     H      0.074430000000     0.219040000000     0.287400000000     0.0400732  
H201     H      0.404100000000     0.498480000000     0.423810000000     0.0269778  
H202     H      0.259810000000     0.344940000000     0.329760000000     0.0255141  
H203     H      0.347010000000     0.384250000000     0.413140000000     0.0508589  
H204     H      0.312970000000     0.370880000000     0.354700000000     0.0518312  
H205     H      0.352050000000     0.472900000000     0.394530000000     0.050319   
H206     H      0.301020000000     0.444020000000     0.411100000000     0.0559978  
H207     H      0.400190000000     0.411030000000     0.439040000000     0.0267865  
H208     H      0.241560000000     0.445130000000     0.358660000000     0.04029    
H209     H      0.559680000000     0.039740000000     0.604640000000     0.0268912  
H210     H      0.500090000000     0.954230000000     0.836950000000     0.0265819  
H211     H      0.474980000000     0.954870000000     0.690430000000     0.0508808  
H212     H      0.503100000000     0.951020000000     0.756450000000     0.0517041  
H213     H      0.563220000000     0.039830000000     0.685600000000     0.0511186  
H214     H      0.536300000000     0.048890000000     0.745960000000     0.0567217  
H215     H      0.472320000000     0.955170000000     0.609080000000     0.0261579  
H216     H      0.518550000000     0.074430000000     0.838230000000     0.0407872  
H217     H      0.473040000000     0.954530000000     0.116030000000     0.0263078  
H218     H      0.530240000000     0.062350000000     0.321520000000     0.0224401  
H219     H      0.478920000000     0.047950000000     0.183430000000     0.0514159  
H220     H      0.519900000000     0.055530000000     0.240230000000     0.0516977  
H221     H      0.472390000000     0.958570000000     0.197270000000     0.0512059  
H222     H      0.442830000000     0.962670000000     0.265230000000     0.0489471  
H223     H      0.479420000000     0.043270000000     0.102550000000     0.0264144  
H224     H      0.429710000000     0.936200000000     0.371170000000     0.00465016 
H225     H      0.590610000000     0.002770000000     0.001130000000     0.0264862  
H226     H      0.743590000000     0.158560000000     0.068190000000     0.0253433  
H227     H      0.640960000000     0.112360000000     0.048320000000     0.0499825  
H228     H      0.692520000000     0.133990000000     0.036330000000     0.0511254  
H229     H      0.643610000000     0.027650000000     0.027530000000     0.0506585  
H230     H      0.675310000000     0.045930000000     0.088540000000     0.0562263  
H231     H      0.589050000000     0.087390000000     0.018490000000     0.0263339  
H232     H      0.744040000000     0.049250000000     0.104510000000     0.0416611  
H233     H      0.140380000000     0.855660000000     0.440070000000     0.0266601  
H234     H      0.192860000000     0.814670000000     0.657780000000     0.0269647  
H235     H      0.227950000000     0.852750000000     0.513140000000     0.0506884  
H236     H      0.196030000000     0.818140000000     0.577380000000     0.0523997  
H237     H      0.146080000000     0.861480000000     0.520850000000     0.0515469  
H238     H      0.182610000000     0.896960000000     0.581280000000     0.056652   
H239     H      0.221770000000     0.847120000000     0.432300000000     0.0261641  
H240     H      0.147440000000     0.895830000000     0.676910000000     0.0393845  
H241     H      0.147640000000     0.771720000000     0.929380000000     0.0269689  
H242     H      0.109990000000     0.817490000000     0.165400000000     0.0268916  
H243     H      0.134900000000     0.846290000000     0.023330000000     0.0514145  
H244     H      0.103600000000     0.813880000000     0.085260000000     0.0520375  
H245     H      0.143250000000     0.764330000000     0.010150000000     0.0508643  
H246     H      0.175910000000     0.790850000000     0.074020000000     0.0570586  
H247     H      0.138760000000     0.852680000000     0.942860000000     0.0266866  
H248     H      0.174530000000     0.755790000000     0.171840000000     0.0385031  
H249     H      0.397740000000     0.911560000000     0.943740000000     0.0263463  
H250     H      0.249190000000     0.917080000000     0.866650000000     0.026814   
H251     H      0.354050000000     0.974800000000     0.886500000000     0.0510384  
H252     H      0.299990000000     0.943840000000     0.900310000000     0.052247   
H253     H      0.345760000000     0.885610000000     0.913210000000     0.0511927  
H254     H      0.320940000000     0.877200000000     0.842390000000     0.0563805  
H255     H      0.405600000000     0.000010000000     0.918800000000     0.0267122  
H256     H      0.276720000000     0.850220000000     0.750420000000     0.0381504  
H257     H      0.802560000000     0.620140000000     0.783770000000     0.0263376  
H258     H      0.777540000000     0.629860000000     0.007040000000     0.0270322  
H259     H      0.813350000000     0.715800000000     0.850670000000     0.0503684  
H260     H      0.770750000000     0.626890000000     0.927030000000     0.0515816  
H261     H      0.800310000000     0.623640000000     0.864390000000     0.0510565  
H262     H      0.845940000000     0.720740000000     0.914330000000     0.056659   
H263     H      0.815990000000     0.711760000000     0.769740000000     0.0263631  
H264     H      0.847390000000     0.755980000000     0.012000000000     0.0385281  
H265     H      0.810790000000     0.617670000000     0.279070000000     0.0268178  
H266     H      0.858630000000     0.711060000000     0.497590000000     0.0274462  
H267     H      0.896090000000     0.708630000000     0.354590000000     0.0504361  
H268     H      0.863110000000     0.710830000000     0.417360000000     0.0520759  
H269     H      0.815000000000     0.617410000000     0.360090000000     0.0521505  
H270     H      0.849890000000     0.618710000000     0.422710000000     0.0565779  
H271     H      0.891390000000     0.708200000000     0.273430000000     0.0260661  
H272     H      0.873240000000     0.609960000000     0.524980000000     0.0393885  
H273     H      0.585030000000     0.589960000000     0.530780000000     0.0266256  
H274     H      0.728620000000     0.580840000000     0.623680000000     0.0267523  
H275     H      0.645560000000     0.536030000000     0.531760000000     0.0506153  
H276     H      0.675960000000     0.554470000000     0.597250000000     0.0516512  
H277     H      0.637170000000     0.616640000000     0.560570000000     0.050866   
H278     H      0.689490000000     0.639920000000     0.540550000000     0.0565219  
H279     H      0.592770000000     0.509520000000     0.504060000000     0.0263163  
H280     H      0.748300000000     0.699600000000     0.594590000000     0.0398883  
H281     H      0.075250000000     0.743010000000     0.745960000000     0.0272254  
H282     H      0.930220000000     0.749210000000     0.653760000000     0.0263479  
H283     H      0.012650000000     0.794770000000     0.746110000000     0.0502333  
H284     H      0.982860000000     0.776030000000     0.679990000000     0.051673   
H285     H      0.022790000000     0.715190000000     0.717260000000     0.0514089  
H286     H      0.970150000000     0.691170000000     0.737750000000     0.0569327  
H287     H      0.065640000000     0.822370000000     0.772800000000     0.0260502  
H288     H      0.894650000000     0.646020000000     0.757920000000     0.0397055  
N1       N      0.785960000000     0.072900000000     0.673300000000    -0.196289   
N2       N      0.709210000000     0.920620000000     0.766470000000    -0.192465   
N3       N      0.947160000000     0.407450000000     0.511010000000    -0.196969   
N4       N      0.873290000000     0.252940000000     0.596650000000    -0.192584   
N5       N      0.117410000000     0.738730000000     0.334690000000    -0.197033   
N6       N      0.039180000000     0.584990000000     0.423530000000    -0.192369   
N7       N      0.544220000000     0.588260000000     0.937990000000    -0.196798   
N8       N      0.620530000000     0.741770000000     0.848150000000    -0.192379   
N9       N      0.210330000000     0.919990000000     0.263080000000    -0.196175   
N10      N      0.288620000000     0.074570000000     0.177990000000    -0.192199   
N11      N      0.450950000000     0.407280000000     0.010790000000    -0.196055   
N12      N      0.374430000000     0.255130000000     0.104350000000    -0.192287   
N13      N      0.660490000000     0.809350000000     0.675870000000    -0.196026   
N14      N      0.669940000000     0.817410000000     0.438600000000    -0.192252   
N15      N      0.662710000000     0.853970000000     0.175820000000    -0.196236   
N16      N      0.669840000000     0.853830000000     0.938670000000    -0.192239   
N17      N      0.789680000000     0.713880000000     0.184670000000    -0.197029   
N18      N      0.710190000000     0.789700000000     0.267120000000    -0.192544   
N19      N      0.550750000000     0.965090000000     0.427480000000    -0.196405   
N20      N      0.624110000000     0.882850000000     0.346760000000    -0.192483   
N21      N      0.994990000000     0.517600000000     0.834380000000    -0.195161   
N22      N      0.999450000000     0.519210000000     0.596900000000    -0.192257   
N23      N      0.985590000000     0.470860000000     0.335120000000    -0.195353   
N24      N      0.989620000000     0.476160000000     0.098100000000    -0.192421   
N25      N      0.951440000000     0.546810000000     0.001130000000    -0.196325   
N26      N      0.878730000000     0.625640000000     0.096190000000    -0.192287   
N27      N      0.339780000000     0.150760000000     0.772750000000    -0.195848   
N28      N      0.330890000000     0.146160000000     0.009990000000    -0.1923     
N29      N      0.325600000000     0.185570000000     0.510860000000    -0.195986   
N30      N      0.332850000000     0.184880000000     0.273630000000    -0.1923     
N31      N      0.375590000000     0.122100000000     0.598940000000    -0.196672   
N32      N      0.456560000000     0.049880000000     0.508640000000    -0.192551   
N33      N      0.032110000000     0.446340000000     0.929980000000    -0.195791   
N34      N      0.112980000000     0.371010000000     0.851180000000    -0.192326   
N35      N      0.290520000000     0.214760000000     0.686850000000    -0.196062   
N36      N      0.209100000000     0.287820000000     0.772010000000    -0.192321   
N37      N      0.472940000000     0.482760000000     0.605550000000    -0.196155   
N38      N      0.479960000000     0.478320000000     0.842440000000    -0.192612   
N39      N      0.518430000000     0.521110000000     0.343090000000    -0.19554    
N40      N      0.514940000000     0.518210000000     0.105970000000    -0.192565   
N41      N      0.852800000000     0.180950000000     0.004050000000    -0.19619    
N42      N      0.847320000000     0.183710000000     0.766890000000    -0.192547   
N43      N      0.806600000000     0.145120000000     0.266520000000    -0.195952   
N44      N      0.812410000000     0.142530000000     0.503630000000    -0.192396   
N45      N      0.138690000000     0.330280000000     0.443110000000    -0.195214   
N46      N      0.142530000000     0.332260000000     0.680520000000    -0.192283   
N47      N      0.179950000000     0.326320000000     0.943370000000    -0.196005   
N48      N      0.182810000000     0.336340000000     0.180480000000    -0.192315   
N49      N      0.070920000000     0.286460000000     0.271570000000    -0.196061   
N50      N      0.918970000000     0.209460000000     0.177020000000    -0.192239   
N51      N      0.249940000000     0.379840000000     0.353570000000    -0.19683    
N52      N      0.406060000000     0.456690000000     0.433580000000    -0.192257   
N53      N      0.515750000000     0.003170000000     0.838720000000    -0.195826   
N54      N      0.515380000000     0.997860000000     0.600830000000    -0.192035   
N55      N      0.492570000000     0.017420000000     0.337410000000    -0.194887   
N56      N      0.477130000000     0.998940000000     0.103260000000    -0.192218   
N57      N      0.740110000000     0.116780000000     0.094940000000    -0.196605   
N58      N      0.585850000000     0.043150000000     0.007970000000    -0.192341   
N59      N      0.184680000000     0.853000000000     0.667300000000    -0.195861   
N60      N      0.180290000000     0.850380000000     0.430280000000    -0.19288    
N61      N      0.147290000000     0.807260000000     0.166980000000    -0.196264   
N62      N      0.144170000000     0.813090000000     0.930200000000    -0.192713   
N63      N      0.254650000000     0.880770000000     0.836570000000    -0.196356   
N64      N      0.405730000000     0.957720000000     0.933040000000    -0.192387   
N65      N      0.816330000000     0.676620000000     0.008060000000    -0.195353   
N66      N      0.810070000000     0.665910000000     0.770730000000    -0.192285   
N67      N      0.850560000000     0.664660000000     0.507870000000    -0.195045   
N68      N      0.850390000000     0.663180000000     0.270270000000    -0.192301   
N69      N      0.740040000000     0.625930000000     0.598580000000    -0.195601   
N70      N      0.584920000000     0.547700000000     0.515360000000    -0.192349   
N71      N      0.919120000000     0.704370000000     0.679560000000    -0.195907   
N72      N      0.074470000000     0.784850000000     0.761210000000    -0.192407   
O1       O      0.877500000000     0.708020000000     0.653360000000    -0.398592   
O2       O      0.787270000000     0.668980000000     0.616400000000    -0.395792   
O3       O      0.820760000000     0.688340000000     0.700510000000    -0.396357   
O4       O      0.844240000000     0.688750000000     0.569910000000    -0.397065   
O5       O      0.838390000000     0.641820000000     0.578320000000    -0.394499   
O6       O      0.815020000000     0.641230000000     0.708730000000    -0.398781   
O7       O      0.781490000000     0.622050000000     0.625230000000    -0.397053   
O8       O      0.871860000000     0.661140000000     0.662210000000    -0.394696   
O9       O      0.117160000000     0.829840000000     0.785660000000    -0.397786   
O10      O      0.208120000000     0.878430000000     0.820930000000    -0.396661   
O11      O      0.174030000000     0.864950000000     0.737790000000    -0.397267   
O12      O      0.151120000000     0.843430000000     0.868340000000    -0.399808   
O13      O      0.154770000000     0.800810000000     0.860370000000    -0.396932   
O14      O      0.177830000000     0.822660000000     0.729560000000    -0.399069   
O15      O      0.211600000000     0.835900000000     0.812200000000    -0.396122   
O16      O      0.120910000000     0.787320000000     0.777090000000    -0.398163   
O17      O      0.451700000000     0.001990000000     0.949880000000    -0.397748   
O18      O      0.542350000000     0.044820000000     0.986170000000    -0.397681   
O19      O      0.508920000000     0.025460000000     0.902520000000    -0.396995   
O20      O      0.485360000000     0.021410000000     0.033450000000    -0.398529   
O21      O      0.483740000000     0.976000000000     0.040230000000    -0.395543   
O22      O      0.504810000000     0.979000000000     0.907840000000    -0.396159   
O23      O      0.540110000000     0.998980000000     0.989860000000    -0.396234   
O24      O      0.448620000000     0.955980000000     0.957950000000    -0.397577   
O25      O      0.205780000000     0.378970000000     0.327880000000    -0.396981   
O26      O      0.115830000000     0.332030000000     0.288160000000    -0.397542   
O27      O      0.147860000000     0.353030000000     0.372760000000    -0.395933   
O28      O      0.174020000000     0.358140000000     0.242830000000    -0.39808    
O29      O      0.172750000000     0.312910000000     0.249860000000    -0.397263   
O30      O      0.148410000000     0.308980000000     0.380680000000    -0.396828   
O31      O      0.115210000000     0.287400000000     0.297360000000    -0.39573    
O32      O      0.206100000000     0.334500000000     0.333200000000    -0.396434   
O33      O      0.783770000000     0.161540000000     0.117380000000    -0.398701   
O34      O      0.873510000000     0.208200000000     0.158030000000    -0.397179   
O35      O      0.841970000000     0.194670000000     0.072740000000    -0.398496   
O36      O      0.815120000000     0.174800000000     0.202710000000    -0.394505   
O37      O      0.818550000000     0.132040000000     0.198200000000    -0.398218   
O38      O      0.843270000000     0.150790000000     0.067490000000    -0.394991   
O39      O      0.876200000000     0.164990000000     0.151330000000    -0.397105   
O40      O      0.785460000000     0.117710000000     0.114680000000    -0.394816   
O41      O      0.539420000000     0.546720000000     0.497690000000    -0.398558   
O42      O      0.449650000000     0.500940000000     0.457440000000    -0.39787    
O43      O      0.481200000000     0.513040000000     0.542530000000    -0.396909   
O44      O      0.507700000000     0.534240000000     0.412720000000    -0.395858   
O45      O      0.508980000000     0.490480000000     0.405880000000    -0.397945   
O46      O      0.484230000000     0.470130000000     0.536390000000    -0.39823    
O47      O      0.451060000000     0.456950000000     0.452770000000    -0.395485   
O48      O      0.541880000000     0.503460000000     0.489630000000    -0.396594   
O49      O      0.115310000000     0.327110000000     0.833590000000    -0.397086   
O50      O      0.164080000000     0.285260000000     0.796780000000    -0.397381   
O51      O      0.149890000000     0.304200000000     0.880290000000    -0.396874   
O52      O      0.129640000000     0.308100000000     0.749460000000    -0.397076   
O53      O      0.172110000000     0.354640000000     0.743470000000    -0.397954   
O54      O      0.192510000000     0.350330000000     0.874140000000    -0.397541   
O55      O      0.206670000000     0.331600000000     0.789830000000    -0.397582   
O56      O      0.158050000000     0.373390000000     0.827160000000    -0.398401   
O57      O      0.288570000000     0.170370000000     0.659820000000    -0.397191   
O58      O      0.331400000000     0.122970000000     0.620350000000    -0.394662   
O59      O      0.314020000000     0.137430000000     0.704960000000    -0.398235   
O60      O      0.305810000000     0.155880000000     0.574880000000    -0.394878   
O61      O      0.351070000000     0.199700000000     0.578920000000    -0.397423   
O62      O      0.360070000000     0.180300000000     0.708500000000    -0.39465    
O63      O      0.376880000000     0.166770000000     0.622360000000    -0.399643   
O64      O      0.334420000000     0.213430000000     0.665190000000    -0.395428   
O65      O      0.948540000000     0.501380000000     0.977140000000    -0.398197   
O66      O      0.988680000000     0.450370000000     0.945480000000    -0.396167   
O67      O      0.967520000000     0.464900000000     0.027620000000    -0.39604    
O68      O      0.969770000000     0.487180000000     0.895930000000    -0.396603   
O69      O      0.016150000000     0.528710000000     0.905850000000    -0.396435   
O70      O      0.014700000000     0.506000000000     0.036580000000    -0.399862   
O71      O      0.035320000000     0.491810000000     0.954700000000    -0.397597   
O72      O      0.995030000000     0.542780000000     0.988130000000    -0.395534   
O73      O      0.622180000000     0.837950000000     0.322350000000    -0.396364   
O74      O      0.665640000000     0.790340000000     0.286310000000    -0.395225   
O75      O      0.646060000000     0.804290000000     0.369660000000    -0.398627   
O76      O      0.641470000000     0.823880000000     0.239010000000    -0.39545    
O77      O      0.686910000000     0.867400000000     0.244860000000    -0.397249   
O78      O      0.692150000000     0.847320000000     0.375640000000    -0.396662   
O79      O      0.711220000000     0.834100000000     0.290940000000    -0.400013   
O80      O      0.668150000000     0.881000000000     0.329400000000    -0.399521   
O81      O      0.789050000000     0.669530000000     0.160960000000    -0.39667    
O82      O      0.834660000000     0.624880000000     0.121640000000    -0.397247   
O83      O      0.821020000000     0.643070000000     0.206460000000    -0.397525   
O84      O      0.802670000000     0.651280000000     0.076210000000    -0.398135   
O85      O      0.846280000000     0.696680000000     0.072090000000    -0.393352   
O86      O      0.865360000000     0.688120000000     0.202070000000    -0.397331   
O87      O      0.878590000000     0.670240000000     0.116290000000    -0.397369   
O88      O      0.833470000000     0.714500000000     0.158280000000    -0.396477   
O89      O      0.505970000000     0.963340000000     0.451690000000    -0.40068    
O90      O      0.457840000000     0.006310000000     0.485850000000    -0.398693   
O91      O      0.476820000000     0.991070000000     0.403020000000    -0.421876   
O92      O      0.487750000000     0.979110000000     0.535040000000    -0.396197   
O93      O      0.532580000000     0.023890000000     0.533890000000    -0.398791   
O94      O      0.519910000000     0.038190000000     0.403420000000    -0.397184   
O95      O      0.502090000000     0.051650000000     0.488820000000    -0.398732   
O96      O      0.549400000000     0.009150000000     0.448500000000    -0.395459   
O97      O      0.333070000000     0.120840000000     0.162680000000    -0.39658    
O98      O      0.376120000000     0.212090000000     0.128810000000    -0.397356   
O99      O      0.355710000000     0.177610000000     0.211270000000    -0.398      
O100     O      0.353620000000     0.155500000000     0.079850000000    -0.397153   
O101     O      0.307620000000     0.152510000000     0.072580000000    -0.398309   
O102     O      0.309730000000     0.174660000000     0.203980000000    -0.397292   
O103     O      0.330160000000     0.209130000000     0.121110000000    -0.39741    
O104     O      0.287160000000     0.117960000000     0.154860000000    -0.398075   
O105     O      0.495450000000     0.450970000000     0.986790000000    -0.395108   
O106     O      0.543020000000     0.542550000000     0.955770000000    -0.396599   
O107     O      0.528180000000     0.507080000000     0.037270000000    -0.396739   
O108     O      0.510140000000     0.486280000000     0.905100000000    -0.397395   
O109     O      0.465870000000     0.486920000000     0.912080000000    -0.399021   
O110     O      0.485680000000     0.511130000000     0.042720000000    -0.39864    
O111     O      0.499210000000     0.544240000000     0.958950000000    -0.397786   
O112     O      0.452420000000     0.453510000000     0.995730000000    -0.396854   
O113     O      0.162550000000     0.783010000000     0.314820000000    -0.397596   
O114     O      0.209110000000     0.873870000000     0.278150000000    -0.395883   
O115     O      0.194830000000     0.840470000000     0.361850000000    -0.399149   
O116     O      0.176800000000     0.816100000000     0.231000000000    -0.395881   
O117     O      0.133690000000     0.818840000000     0.235200000000    -0.398895   
O118     O      0.150600000000     0.841350000000     0.366870000000    -0.398393   
O119     O      0.165560000000     0.875700000000     0.284680000000    -0.397727   
O120     O      0.118590000000     0.784430000000     0.317200000000    -0.397564   
O121     O      0.038590000000     0.540760000000     0.447720000000    -0.396953   
O122     O      0.992060000000     0.450910000000     0.488430000000    -0.397389   
O123     O      0.010970000000     0.482200000000     0.403490000000    -0.395952   
O124     O      0.019580000000     0.509580000000     0.533350000000    -0.397359   
O125     O      0.974820000000     0.509450000000     0.528590000000    -0.39789    
O126     O      0.966420000000     0.482110000000     0.398640000000    -0.396953   
O127     O      0.947560000000     0.451220000000     0.484510000000    -0.397172   
O128     O      0.993960000000     0.540980000000     0.443730000000    -0.397048   
O129     O      0.874340000000     0.208560000000     0.615340000000    -0.396902   
O130     O      0.829730000000     0.117230000000     0.648740000000    -0.396185   
O131     O      0.842780000000     0.151550000000     0.566280000000    -0.397609   
O132     O      0.861310000000     0.174130000000     0.697740000000    -0.398209   
O133     O      0.817460000000     0.175660000000     0.703890000000    -0.398083   
O134     O      0.797930000000     0.151050000000     0.573110000000    -0.397832   
O135     O      0.785770000000     0.118080000000     0.656990000000    -0.398668   
O136     O      0.829590000000     0.208510000000     0.619780000000    -0.398751   
O137     O      0.665220000000     0.786440000000     0.828070000000    -0.396342   
O138     O      0.710080000000     0.877410000000     0.792270000000    -0.39708    
O139     O      0.690500000000     0.844040000000     0.875850000000    -0.397192   
O140     O      0.684890000000     0.820010000000     0.744690000000    -0.397951   
O141     O      0.639080000000     0.817340000000     0.739780000000    -0.396641   
O142     O      0.645720000000     0.843780000000     0.869880000000    -0.398009   
O143     O      0.664580000000     0.875500000000     0.784920000000    -0.398581   
O144     O      0.620060000000     0.785620000000     0.824870000000    -0.398312   
S1       S      0.830310000000     0.062420000000     0.632660000000    -0.0437244  
S2       S      0.902260000000     0.418120000000     0.549100000000    -0.0443031  
S3       S      0.063210000000     0.730250000000     0.294840000000    -0.0442074  
S4       S      0.598980000000     0.596870000000     0.975930000000    -0.0437482  
S5       S      0.166250000000     0.930590000000     0.304440000000    -0.0438545  
S6       S      0.493610000000     0.395390000000     0.967760000000    -0.0425625  
S7       S      0.596790000000     0.786960000000     0.671480000000    -0.0436199  
S8       S      0.598630000000     0.814830000000     0.172600000000    -0.0417439  
S9       S      0.844300000000     0.757130000000     0.226690000000    -0.0433014  
S10      S      0.596800000000     0.020280000000     0.389520000000    -0.0413134  
S11      S      0.054970000000     0.568740000000     0.841710000000    -0.0410682  
S12      S      0.035990000000     0.460790000000     0.340420000000    -0.0416396  
S13      S      0.897560000000     0.507250000000     0.954000000000    -0.0440141  
S14      S      0.402870000000     0.194660000000     0.776520000000    -0.0421626  
S15      S      0.262030000000     0.143660000000     0.508640000000    -0.0420153  
S16      S      0.328990000000     0.066030000000     0.633180000000    -0.0427618  
S17      S      0.976720000000     0.400480000000     0.891900000000    -0.0411889  
S18      S      0.345760000000     0.259850000000     0.726010000000    -0.0400076  
S19      S      0.449880000000     0.523510000000     0.611060000000    -0.0433063  
S20      S      0.518940000000     0.577560000000     0.347530000000    -0.0417099  
S21      S      0.874860000000     0.139340000000     0.000430000000    -0.0419161  
S22      S      0.783290000000     0.185710000000     0.269960000000    -0.0411708  
S23      S      0.140320000000     0.387300000000     0.438290000000    -0.041416   
S24      S      0.140090000000     0.262330000000     0.948360000000    -0.0441808  
S25      S      0.060640000000     0.231810000000     0.312700000000    -0.0438657  
S26      S      0.239520000000     0.424930000000     0.391550000000    -0.0473409  
S27      S      0.541900000000     0.067490000000     0.835120000000    -0.0435763  
S28      S      0.453180000000     0.967770000000     0.366380000000     0.078843   
S29      S      0.730760000000     0.061470000000     0.131990000000    -0.0436464  
S30      S      0.178450000000     0.905820000000     0.672540000000    -0.0419697  
S31      S      0.190420000000     0.787030000000     0.163150000000    -0.0413283  
S32      S      0.267750000000     0.839060000000     0.793110000000    -0.0426885  
S33      S      0.861790000000     0.739170000000     0.003250000000    -0.0405325  
S34      S      0.844630000000     0.605800000000     0.514120000000    -0.0408475  
S35      S      0.750760000000     0.681980000000     0.561240000000    -0.0415523  
S36      S      0.908820000000     0.648650000000     0.717430000000    -0.0411117  


