data_structure

_audit_creation_method RASPA-1.0
_audit_creation_date 2023-6-5
_audit_author_name 'Poobodin Mano'

_cell_length_a    49.7579
_cell_length_b    49.7347
_cell_length_c    29.7863
_cell_angle_alpha 89.9727
_cell_angle_beta  90.0275
_cell_angle_gamma 119.979
_cell_volume      63849.9

_symmetry_cell_setting          triclinic
_symmetry_space_group_name_Hall 'P 1'
_symmetry_space_group_name_H-M  'P 1'
_symmetry_Int_Tables_number     1

_symmetry_equiv_pos_as_xyz 'x,y,z'

loop_
_atom_site_label
_atom_site_type_symbol
_atom_site_fract_x
_atom_site_fract_y
_atom_site_fract_z
_atom_site_charge
C1       C      0.769780000000     0.636360000000     0.614350000000     0.409428   
C2       C      0.888560000000     0.692610000000     0.664710000000     0.434702   
C3       C      0.844800000000     0.666960000000     0.553210000000     0.432761   
C4       C      0.813340000000     0.661480000000     0.725710000000     0.431973   
C5       C      0.102890000000     0.801550000000     0.782670000000     0.407572   
C6       C      0.221940000000     0.864090000000     0.831690000000     0.407304   
C7       C      0.177570000000     0.845460000000     0.720920000000     0.407388   
C8       C      0.147020000000     0.820000000000     0.893640000000     0.407727   
C9       C      0.436990000000     0.971910000000     0.945970000000     0.432701   
C10      C      0.556020000000     0.026820000000     0.995440000000     0.432286   
C11      C      0.511950000000     0.001190000000     0.884430000000     0.432483   
C12      C      0.481240000000     0.997520000000     0.056980000000     0.40971    
C13      C      0.103710000000     0.303190000000     0.280030000000     0.432718   
C14      C      0.222680000000     0.361100000000     0.329520000000     0.409646   
C15      C      0.178510000000     0.334440000000     0.218730000000     0.433972   
C16      C      0.148070000000     0.330470000000     0.391350000000     0.431219   
C17      C      0.770770000000     0.134420000000     0.110860000000     0.408381   
C18      C      0.889290000000     0.195920000000     0.162480000000     0.407732   
C19      C      0.846490000000     0.177500000000     0.050410000000     0.407043   
C20      C      0.813800000000     0.153090000000     0.222740000000     0.431362   
C21      C      0.555900000000     0.531420000000     0.495990000000     0.4325     
C22      C      0.436930000000     0.467950000000     0.446400000000     0.432591   
C23      C      0.481040000000     0.486410000000     0.557550000000     0.43359    
C24      C      0.511630000000     0.512940000000     0.384880000000     0.409356   
C25      C      0.193970000000     0.302690000000     0.780900000000     0.433358   
C26      C      0.134280000000     0.362100000000     0.830000000000     0.407622   
C27      C      0.152190000000     0.336010000000     0.718950000000     0.407445   
C28      C      0.175880000000     0.328420000000     0.891700000000     0.40935    
C29      C      0.300730000000     0.195210000000     0.662920000000     0.40837    
C30      C      0.359730000000     0.134990000000     0.614490000000     0.434413   
C31      C      0.332290000000     0.151920000000     0.724970000000     0.433297   
C32      C      0.328380000000     0.178510000000     0.552270000000     0.431349   
C33      C      0.969240000000     0.530770000000     0.997060000000     0.434817   
C34      C      0.028470000000     0.471390000000     0.945210000000     0.433551   
C35      C      0.003210000000     0.488730000000     0.057410000000     0.430889   
C36      C      0.994410000000     0.513140000000     0.885160000000     0.435271   
C37      C      0.636950000000     0.866000000000     0.326870000000     0.408069   
C38      C      0.691640000000     0.801490000000     0.278750000000     0.432478   
C39      C      0.666130000000     0.820590000000     0.389380000000     0.431933   
C40      C      0.662550000000     0.846930000000     0.216500000000     0.408999   
C41      C      0.798360000000     0.693480000000     0.163470000000     0.407175   
C42      C      0.859950000000     0.635950000000     0.114680000000     0.407793   
C43      C      0.841850000000     0.662190000000     0.225520000000     0.407597   
C44      C      0.816560000000     0.667530000000     0.052770000000     0.407918   
C45      C      0.530300000000     0.972880000000     0.446140000000     0.432567   
C46      C      0.467680000000     0.029290000000     0.495440000000     0.408901   
C47      C      0.486230000000     0.004120000000     0.384290000000     0.431663   
C48      C      0.511610000000     0.998180000000     0.557000000000     0.409057   
C49      C      0.302840000000     0.106270000000     0.163090000000     0.433839   
C50      C      0.360710000000     0.225450000000     0.114110000000     0.432183   
C51      C      0.334540000000     0.181140000000     0.224880000000     0.409629   
C52      C      0.328770000000     0.150300000000     0.052230000000     0.410048   
C53      C      0.466760000000     0.439560000000     0.996160000000     0.408529   
C54      C      0.527730000000     0.558470000000     0.945930000000     0.434612   
C55      C      0.510050000000     0.514930000000     0.057310000000     0.432925   
C56      C      0.484600000000     0.483120000000     0.884810000000     0.407976   
C57      C      0.194240000000     0.892130000000     0.281790000000     0.40857    
C58      C      0.131970000000     0.773380000000     0.332560000000     0.433113   
C59      C      0.150340000000     0.816940000000     0.220930000000     0.432033   
C60      C      0.176240000000     0.848580000000     0.393410000000     0.432217   
C61      C      0.026380000000     0.558790000000     0.448520000000     0.408036   
C62      C      0.970440000000     0.439000000000     0.493940000000     0.432401   
C63      C      0.998060000000     0.485150000000     0.384730000000     0.409692   
C64      C      0.998940000000     0.512910000000     0.557870000000     0.408764   
C65      C      0.863530000000     0.225230000000     0.612610000000     0.408321   
C66      C      0.799560000000     0.105920000000     0.660300000000     0.40735    
C67      C      0.818260000000     0.150800000000     0.550060000000     0.407356   
C68      C      0.844640000000     0.180400000000     0.723010000000     0.430809   
C69      C      0.633580000000     0.772900000000     0.828110000000     0.408506   
C70      C      0.691660000000     0.891850000000     0.778040000000     0.43307    
C71      C      0.665890000000     0.848290000000     0.889200000000     0.432797   
C72      C      0.659310000000     0.816450000000     0.716740000000     0.407906   
C73      C      0.738320000000     0.940390000000     0.765710000000     0.414757   
C74      C      0.689600000000     0.934180000000     0.744520000000     0.097335   
C75      C      0.753390000000     0.970670000000     0.748900000000    -0.209781   
C76      C      0.782090000000     0.027320000000     0.689970000000    -0.0730673  
C77      C      0.704050000000     0.964140000000     0.726610000000    -0.116006   
C78      C      0.752440000000     0.014830000000     0.708960000000     0.017285   
C79      C      0.736410000000     0.982860000000     0.728370000000     0.0954119  
C80      C      0.797350000000     0.057650000000     0.673530000000     0.0707191  
C81      C      0.754160000000     0.063400000000     0.691820000000     0.0711008  
C82      C      0.738470000000     0.033330000000     0.709410000000    -0.0725266  
C83      C      0.924290000000     0.389860000000     0.504850000000     0.415635   
C84      C      0.973140000000     0.396910000000     0.527190000000     0.0955864  
C85      C      0.909470000000     0.359630000000     0.521760000000    -0.20967    
C86      C      0.880930000000     0.303630000000     0.581780000000    -0.0718162  
C87      C      0.958900000000     0.366950000000     0.545210000000    -0.116779   
C88      C      0.910670000000     0.316100000000     0.563060000000     0.0176905  
C89      C      0.926590000000     0.347900000000     0.543100000000     0.0954171  
C90      C      0.865690000000     0.273400000000     0.598600000000     0.0728401  
C91      C      0.909070000000     0.267730000000     0.581290000000     0.0706075  
C92      C      0.924770000000     0.297730000000     0.563380000000    -0.0731251  
C93      C      0.087120000000     0.730710000000     0.366260000000     0.415546   
C94      C      0.130220000000     0.725370000000     0.345570000000     0.0991023  
C95      C      0.072030000000     0.700610000000     0.383760000000    -0.209096   
C96      C      0.037870000000     0.631450000000     0.399670000000    -0.0713197  
C97      C      0.115450000000     0.695000000000     0.361940000000    -0.115467   
C98      C      0.070300000000     0.650100000000     0.400680000000     0.0182106  
C99      C      0.086090000000     0.682250000000     0.381890000000     0.0962115  
C100     C      0.023540000000     0.601320000000     0.416990000000     0.0721663  
C101     C      0.072430000000     0.607190000000     0.435910000000     0.0717022  
C102     C      0.087480000000     0.637620000000     0.419740000000    -0.0726769  
C103     C      0.574760000000     0.606120000000     0.930970000000     0.416214   
C104     C      0.525990000000     0.601270000000     0.914010000000     0.097372   
C105     C      0.589950000000     0.636580000000     0.914620000000    -0.207739   
C106     C      0.619320000000     0.695760000000     0.860780000000    -0.0713739  
C107     C      0.540490000000     0.631120000000     0.895870000000    -0.115916   
C108     C      0.588850000000     0.681850000000     0.877470000000     0.0188752  
C109     C      0.572960000000     0.649510000000     0.896130000000     0.0958879  
C110     C      0.633980000000     0.726230000000     0.844650000000     0.0724665  
C111     C      0.588700000000     0.729270000000     0.858170000000     0.0730224  
C112     C      0.573750000000     0.699340000000     0.876090000000    -0.0714154  
C113     C      0.302290000000     0.058600000000     0.177890000000     0.41459    
C114     C      0.258480000000     0.063540000000     0.195240000000     0.0951537  
C115     C      0.287110000000     0.028170000000     0.194330000000    -0.208702   
C116     C      0.257340000000     0.968900000000     0.248200000000    -0.0710786  
C117     C      0.243230000000     0.033740000000     0.213490000000    -0.117631   
C118     C      0.240850000000     0.982960000000     0.231700000000     0.0176688  
C119     C      0.257280000000     0.015290000000     0.213040000000     0.0940645  
C120     C      0.241460000000     0.938460000000     0.264540000000     0.0728958  
C121     C      0.193260000000     0.935810000000     0.251430000000     0.0710161  
C122     C      0.208300000000     0.965660000000     0.233300000000    -0.0738503  
C123     C      0.407280000000     0.274130000000     0.101950000000     0.415354   
C124     C      0.358490000000     0.267680000000     0.080590000000     0.0956662  
C125     C      0.422250000000     0.304450000000     0.085220000000    -0.208942   
C126     C      0.450780000000     0.361520000000     0.026760000000    -0.0712674  
C127     C      0.372840000000     0.297660000000     0.062760000000    -0.117365   
C128     C      0.421020000000     0.348610000000     0.045580000000     0.0181848  
C129     C      0.405180000000     0.316550000000     0.064710000000     0.0956513  
C130     C      0.465660000000     0.391850000000     0.010200000000     0.0737745  
C131     C      0.421970000000     0.396780000000     0.028340000000     0.0719345  
C132     C      0.406670000000     0.366750000000     0.046030000000    -0.0725164  
C133     C      0.691480000000     0.833530000000     0.461070000000     0.414679   
C134     C      0.639850000000     0.791630000000     0.454510000000     0.0969095  
C135     C      0.690220000000     0.829860000000     0.507630000000    -0.21098    
C136     C      0.685060000000     0.808930000000     0.604630000000    -0.0722719  
C137     C      0.637810000000     0.787620000000     0.501070000000    -0.117249   
C138     C      0.660430000000     0.805670000000     0.577960000000     0.0173361  
C139     C      0.662990000000     0.807230000000     0.528260000000     0.0964741  
C140     C      0.683740000000     0.811170000000     0.651220000000     0.0720721  
C141     C      0.633760000000     0.805820000000     0.645860000000     0.0716949  
C142     C      0.634230000000     0.803280000000     0.599200000000    -0.0721343  
C143     C      0.642190000000     0.854880000000     0.955340000000     0.416218   
C144     C      0.691600000000     0.858690000000     0.959720000000     0.0974712  
C145     C      0.641590000000     0.857510000000     0.002000000000    -0.20928    
C146     C      0.637450000000     0.836570000000     0.099140000000    -0.0717254  
C147     C      0.691800000000     0.861730000000     0.006310000000    -0.117231   
C148     C      0.664310000000     0.859250000000     0.077770000000     0.018131   
C149     C      0.666240000000     0.860300000000     0.028070000000     0.0966048  
C150     C      0.636970000000     0.833380000000     0.145710000000     0.074606   
C151     C      0.688380000000     0.875760000000     0.150860000000     0.0716043  
C152     C      0.689800000000     0.879320000000     0.104210000000    -0.0732485  
C153     C      0.688820000000     0.756080000000     0.245920000000     0.414759   
C154     C      0.737500000000     0.798930000000     0.266430000000     0.0959353  
C155     C      0.703550000000     0.740630000000     0.228690000000    -0.209246   
C156     C      0.737960000000     0.705860000000     0.212910000000    -0.0719296  
C157     C      0.752790000000     0.783800000000     0.250370000000    -0.117034   
C158     C      0.752030000000     0.738320000000     0.211900000000     0.0172067  
C159     C      0.735940000000     0.754400000000     0.230560000000     0.0948383  
C160     C      0.753450000000     0.691240000000     0.195530000000     0.071499   
C161     C      0.796810000000     0.739930000000     0.176680000000     0.0701312  
C162     C      0.781730000000     0.755260000000     0.192900000000    -0.0737645  
C163     C      0.532800000000     0.926580000000     0.433650000000     0.415284   
C164     C      0.575120000000     0.975610000000     0.413100000000     0.0964199  
C165     C      0.548210000000     0.911800000000     0.416620000000    -0.210045   
C166     C      0.576060000000     0.883660000000     0.356840000000    -0.0722541  
C167     C      0.590820000000     0.961420000000     0.394940000000    -0.1162     
C168     C      0.593280000000     0.913210000000     0.376180000000     0.0178265  
C169     C      0.577330000000     0.929050000000     0.396150000000     0.0956687  
C170     C      0.591060000000     0.868410000000     0.340150000000     0.072268   
C171     C      0.640030000000     0.911470000000     0.358620000000     0.0714263  
C172     C      0.625730000000     0.927160000000     0.376510000000    -0.0724009  
C173     C      0.017560000000     0.542910000000     0.818460000000     0.421059   
C174     C      0.968360000000     0.497000000000     0.814930000000     0.0991967  
C175     C      0.018110000000     0.545550000000     0.771740000000    -0.208863   
C176     C      0.970440000000     0.517790000000     0.669360000000    -0.0714547  
C177     C      0.968120000000     0.499230000000     0.768210000000    -0.116734   
C178     C      0.995750000000     0.523420000000     0.696390000000     0.0188768  
C179     C      0.993610000000     0.523190000000     0.746050000000     0.0985416  
C180     C      0.972300000000     0.515550000000     0.622790000000     0.0736509  
C181     C      0.023680000000     0.524640000000     0.629270000000     0.0728169  
C182     C      0.022770000000     0.527470000000     0.675740000000    -0.0732823  
C183     C      0.980300000000     0.458230000000     0.123600000000     0.415088   
C184     C      0.029110000000     0.504580000000     0.127830000000     0.0970608  
C185     C      0.979780000000     0.455080000000     0.170220000000    -0.210537   
C186     C      0.974590000000     0.471790000000     0.266700000000    -0.0719331  
C187     C      0.029360000000     0.501850000000     0.174490000000    -0.116636   
C188     C      0.001820000000     0.476500000000     0.245910000000     0.0172727  
C189     C      0.004060000000     0.477380000000     0.196260000000     0.0962613  
C190     C      0.973490000000     0.473920000000     0.313260000000     0.073748   
C191     C      0.025060000000     0.483520000000     0.319540000000     0.0715164  
C192     C      0.027120000000     0.482020000000     0.272870000000    -0.0727584  
C193     C      0.968220000000     0.577580000000     0.012120000000     0.416639   
C194     C      0.924550000000     0.528640000000     0.029090000000     0.097953   
C195     C      0.952850000000     0.592610000000     0.028580000000    -0.207633   
C196     C      0.922980000000     0.621860000000     0.082380000000    -0.0719124  
C197     C      0.909100000000     0.543000000000     0.047350000000    -0.114798   
C198     C      0.906500000000     0.591300000000     0.065910000000     0.0188173  
C199     C      0.923010000000     0.575490000000     0.047180000000     0.0954612  
C200     C      0.907110000000     0.636510000000     0.098330000000     0.0717729  
C201     C      0.858890000000     0.591010000000     0.085190000000     0.0718422  
C202     C      0.873940000000     0.576080000000     0.067440000000    -0.0723989  
C203     C      0.307470000000     0.121810000000     0.790890000000     0.414524   
C204     C      0.357440000000     0.166620000000     0.795850000000     0.0982995  
C205     C      0.306470000000     0.118500000000     0.837590000000    -0.209783   
C206     C      0.302830000000     0.135500000000     0.935160000000    -0.0733449  
C207     C      0.357260000000     0.163660000000     0.842420000000    -0.116903   
C208     C      0.329310000000     0.138860000000     0.913590000000     0.0178855  
C209     C      0.331260000000     0.139870000000     0.863900000000     0.0965266  
C210     C      0.302670000000     0.138440000000     0.981760000000     0.0723884  
C211     C      0.353570000000     0.146010000000     0.986410000000     0.0744711  
C212     C      0.354650000000     0.143570000000     0.939810000000    -0.0717093  
C213     C      0.353960000000     0.208090000000     0.486380000000     0.416307   
C214     C      0.303290000000     0.164340000000     0.481220000000     0.095485   
C215     C      0.355290000000     0.211320000000     0.439700000000    -0.209427   
C216     C      0.308080000000     0.188000000000     0.336830000000    -0.073612   
C217     C      0.303810000000     0.167240000000     0.434580000000    -0.118522   
C218     C      0.332680000000     0.191370000000     0.363610000000     0.0177681  
C219     C      0.330330000000     0.190430000000     0.413250000000     0.0964274  
C220     C      0.309660000000     0.185990000000     0.290220000000     0.0715523  
C221     C      0.359560000000     0.191150000000     0.296040000000     0.0746193  
C222     C      0.358920000000     0.193690000000     0.342650000000    -0.0712037  
C223     C      0.406510000000     0.133190000000     0.602880000000     0.418539   
C224     C      0.357990000000     0.090980000000     0.580320000000     0.0982601  
C225     C      0.421720000000     0.118140000000     0.586000000000    -0.20842    
C226     C      0.450890000000     0.090600000000     0.527010000000    -0.071169   
C227     C      0.372590000000     0.075680000000     0.562310000000    -0.116572   
C228     C      0.421020000000     0.073380000000     0.545330000000     0.0185682  
C229     C      0.404910000000     0.089220000000     0.564770000000     0.0969127  
C230     C      0.466040000000     0.075500000000     0.510200000000     0.0737383  
C231     C      0.422400000000     0.026540000000     0.527020000000     0.0722344  
C232     C      0.406810000000     0.040900000000     0.544950000000    -0.0722746  
C233     C      0.073210000000     0.472890000000     0.912840000000     0.416595   
C234     C      0.028790000000     0.424620000000     0.930280000000     0.0967241  
C235     C      0.087980000000     0.457600000000     0.895260000000    -0.208511   
C236     C      0.121830000000     0.423090000000     0.876650000000    -0.0719278  
C237     C      0.043430000000     0.408710000000     0.914560000000    -0.115431   
C238     C      0.089300000000     0.408470000000     0.878130000000     0.0181295  
C239     C      0.073380000000     0.425060000000     0.896170000000     0.0950415  
C240     C      0.136360000000     0.407580000000     0.859180000000     0.0717862  
C241     C      0.087660000000     0.362570000000     0.846490000000     0.0705161  
C242     C      0.072310000000     0.377820000000     0.862140000000    -0.0733854  
C243     C      0.240870000000     0.301780000000     0.766660000000     0.413971   
C244     C      0.192110000000     0.258050000000     0.749120000000     0.0948379  
C245     C      0.256070000000     0.286600000000     0.750220000000    -0.209939   
C246     C      0.285760000000     0.257520000000     0.695890000000    -0.0713264  
C247     C      0.206660000000     0.242780000000     0.730820000000    -0.117633   
C248     C      0.255190000000     0.240700000000     0.712140000000     0.017041   
C249     C      0.239140000000     0.256870000000     0.731190000000     0.0943784  
C250     C      0.300690000000     0.242000000000     0.679740000000     0.0720643  
C251     C      0.255410000000     0.193450000000     0.692100000000     0.0712826  
C252     C      0.240200000000     0.208150000000     0.710070000000    -0.0727172  
C253     C      0.468310000000     0.499230000000     0.629080000000     0.41849    
C254     C      0.478450000000     0.457560000000     0.622790000000     0.098321   
C255     C      0.465940000000     0.495650000000     0.675670000000    -0.209008   
C256     C      0.450550000000     0.474630000000     0.772970000000    -0.0721824  
C257     C      0.476580000000     0.453670000000     0.669360000000    -0.116813   
C258     C      0.472170000000     0.471950000000     0.746120000000     0.0180672  
C259     C      0.470870000000     0.473240000000     0.696430000000     0.0974142  
C260     C      0.454300000000     0.476990000000     0.819560000000     0.0722404  
C261     C      0.499760000000     0.473130000000     0.813730000000     0.0726066  
C262     C      0.496530000000     0.470390000000     0.767120000000    -0.071964   
C263     C      0.539740000000     0.520410000000     0.123730000000     0.417444   
C264     C      0.495180000000     0.526030000000     0.127700000000     0.0974947  
C265     C      0.542840000000     0.522860000000     0.170420000000    -0.208901   
C266     C      0.525870000000     0.502230000000     0.267440000000    -0.0717438  
C267     C      0.497870000000     0.528850000000     0.174360000000    -0.116808   
C268     C      0.522100000000     0.525210000000     0.246090000000     0.0185425  
C269     C      0.521400000000     0.526420000000     0.196340000000     0.0972517  
C270     C      0.523230000000     0.499070000000     0.314020000000     0.0750304  
C271     C      0.514970000000     0.541970000000     0.319250000000     0.0732698  
C272     C      0.517100000000     0.545540000000     0.272590000000    -0.0718736  
C273     C      0.831670000000     0.193020000000     0.794450000000     0.414117   
C274     C      0.873130000000     0.182560000000     0.788480000000     0.093976   
C275     C      0.835100000000     0.195330000000     0.841030000000    -0.211021   
C276     C      0.855430000000     0.210890000000     0.938060000000    -0.0731274  
C277     C      0.876890000000     0.184420000000     0.835110000000    -0.118869   
C278     C      0.858650000000     0.189350000000     0.911760000000     0.0158873  
C279     C      0.857380000000     0.190320000000     0.862010000000     0.095022   
C280     C      0.852690000000     0.207310000000     0.984620000000     0.0704774  
C281     C      0.857580000000     0.162360000000     0.980030000000     0.0696945  
C282     C      0.860580000000     0.165370000000     0.933390000000    -0.0735811  
C283     C      0.802630000000     0.167890000000     0.293940000000     0.414585   
C284     C      0.809060000000     0.123840000000     0.288440000000     0.0947486  
C285     C      0.800290000000     0.164760000000     0.340610000000    -0.210033   
C286     C      0.784590000000     0.144840000000     0.438510000000    -0.0731163  
C287     C      0.807160000000     0.120340000000     0.335040000000    -0.119072   
C288     C      0.804990000000     0.140350000000     0.411430000000     0.0163933  
C289     C      0.803410000000     0.141340000000     0.361750000000     0.09525    
C290     C      0.788570000000     0.147010000000     0.485070000000     0.0708045  
C291     C      0.831950000000     0.139650000000     0.478690000000     0.0701673  
C292     C      0.828420000000     0.137020000000     0.432130000000    -0.0738709  
C293     C      0.144920000000     0.356410000000     0.457430000000     0.413577   
C294     C      0.137420000000     0.305470000000     0.462440000000     0.0948103  
C295     C      0.143440000000     0.357860000000     0.504150000000    -0.210888   
C296     C      0.119170000000     0.310460000000     0.606680000000    -0.0749045  
C297     C      0.135420000000     0.306110000000     0.509120000000    -0.118607   
C298     C      0.140640000000     0.335050000000     0.580170000000     0.0160864  
C299     C      0.139230000000     0.332800000000     0.530520000000     0.0949143  
C300     C      0.122640000000     0.311770000000     0.653270000000     0.0694     
C301     C      0.167730000000     0.361460000000     0.648050000000     0.0712919  
C302     C      0.164700000000     0.361070000000     0.601400000000    -0.0729338  
C303     C      0.190480000000     0.359750000000     0.147080000000     0.415896   
C304     C      0.181650000000     0.308400000000     0.153690000000     0.0978689  
C305     C      0.192850000000     0.358510000000     0.100540000000    -0.210986   
C306     C      0.209320000000     0.353250000000     0.003860000000    -0.0732193  
C307     C      0.183460000000     0.306320000000     0.107130000000    -0.117711   
C308     C      0.187540000000     0.328840000000     0.030360000000     0.0168472  
C309     C      0.188580000000     0.331380000000     0.079980000000     0.0960472  
C310     C      0.205790000000     0.352110000000     0.957300000000     0.0727214  
C311     C      0.160280000000     0.302750000000     0.962440000000     0.071327   
C312     C      0.163290000000     0.303000000000     0.009080000000    -0.073655   
C313     C      0.060450000000     0.258440000000     0.247920000000     0.414394   
C314     C      0.056790000000     0.303130000000     0.264290000000     0.0971148  
C315     C      0.030470000000     0.243630000000     0.230240000000    -0.21094    
C316     C      0.962340000000     0.209500000000     0.211950000000    -0.0730931  
C317     C      0.026240000000     0.288430000000     0.248420000000    -0.115504   
C318     C      0.980090000000     0.242070000000     0.212620000000     0.017835   
C319     C      0.012580000000     0.258270000000     0.230660000000     0.0946198  
C320     C      0.932500000000     0.194600000000     0.193870000000     0.071162   
C321     C      0.935910000000     0.243020000000     0.179330000000     0.0720861  
C322     C      0.966360000000     0.258740000000     0.195590000000    -0.0723022  
C323     C      0.394350000000     0.422850000000     0.413020000000     0.415226   
C324     C      0.388820000000     0.465920000000     0.433430000000     0.0974959  
C325     C      0.364280000000     0.407670000000     0.395460000000    -0.208815   
C326     C      0.295240000000     0.373300000000     0.379460000000    -0.0722471  
C327     C      0.358490000000     0.451050000000     0.417020000000    -0.115876   
C328     C      0.313710000000     0.405740000000     0.378390000000     0.0184181  
C329     C      0.345840000000     0.421660000000     0.397170000000     0.0957065  
C330     C      0.265200000000     0.358780000000     0.361950000000     0.0725674  
C331     C      0.270670000000     0.407520000000     0.342910000000     0.0741803  
C332     C      0.301060000000     0.422770000000     0.359270000000    -0.0715518  
C333     C      0.516670000000     0.976030000000     0.818480000000     0.416538   
C334     C      0.523880000000     0.026850000000     0.813790000000     0.0987136  
C335     C      0.519370000000     0.975200000000     0.771830000000    -0.208539   
C336     C      0.499970000000     0.972320000000     0.674100000000    -0.0719275  
C337     C      0.526980000000     0.026800000000     0.767240000000    -0.116279   
C338     C      0.523180000000     0.998680000000     0.695840000000     0.0181781  
C339     C      0.523940000000     0.000490000000     0.745600000000     0.0961961  
C340     C      0.497070000000     0.972190000000     0.627490000000     0.0734464  
C341     C      0.540690000000     0.022910000000     0.622990000000     0.0716306  
C342     C      0.544050000000     0.023950000000     0.669660000000    -0.0731854  
C343     C      0.499830000000     0.029990000000     0.312920000000     0.415737   
C344     C      0.456660000000     0.979030000000     0.319060000000     0.0973237  
C345     C      0.496100000000     0.029150000000     0.266350000000    -0.208861   
C346     C      0.475550000000     0.024880000000     0.168930000000    -0.0711867  
C347     C      0.452540000000     0.977430000000     0.272550000000    -0.116264   
C348     C      0.471250000000     0.999910000000     0.195800000000     0.0192575  
C349     C      0.472790000000     0.002420000000     0.245530000000     0.0969632  
C350     C      0.477500000000     0.023210000000     0.122280000000     0.074519   
C351     C      0.470050000000     0.972390000000     0.128140000000     0.0752706  
C352     C      0.467710000000     0.973170000000     0.174750000000    -0.0714913  
C353     C      0.598640000000     0.024240000000     0.028710000000     0.416237   
C354     C      0.604390000000     0.072780000000     0.007390000000     0.0973459  
C355     C      0.628850000000     0.039120000000     0.045860000000    -0.207954   
C356     C      0.692500000000     0.117710000000     0.080390000000    -0.0717897  
C357     C      0.634840000000     0.088210000000     0.023330000000    -0.116054   
C358     C      0.679670000000     0.087790000000     0.062080000000     0.0185482  
C359     C      0.647450000000     0.071510000000     0.043500000000     0.096039   
C360     C      0.722910000000     0.132920000000     0.096600000000     0.0727641  
C361     C      0.728130000000     0.089300000000     0.079090000000     0.072072   
C362     C      0.698030000000     0.073670000000     0.061700000000    -0.0722196  
C363     C      0.205580000000     0.853020000000     0.459780000000     0.414587   
C364     C      0.161730000000     0.859830000000     0.463970000000     0.0972874  
C365     C      0.208580000000     0.855080000000     0.506480000000    -0.210228   
C366     C      0.184180000000     0.878610000000     0.608800000000    -0.073793   
C367     C      0.164370000000     0.862330000000     0.510640000000    -0.117351   
C368     C      0.188100000000     0.857650000000     0.582170000000     0.0168889  
C369     C      0.187470000000     0.859090000000     0.532480000000     0.0957964  
C370     C      0.182020000000     0.874990000000     0.655430000000     0.0701893  
C371     C      0.188070000000     0.830740000000     0.649900000000     0.0716394  
C372     C      0.190740000000     0.833930000000     0.603320000000    -0.0728501  
C373     C      0.164280000000     0.805280000000     0.149480000000     0.415603   
C374     C      0.121030000000     0.812940000000     0.155600000000     0.0959234  
C375     C      0.160830000000     0.802860000000     0.102880000000    -0.209917   
C376     C      0.140330000000     0.786780000000     0.005650000000    -0.071879   
C377     C      0.117230000000     0.810970000000     0.109020000000    -0.11822    
C378     C      0.136280000000     0.807640000000     0.032350000000     0.0170262  
C379     C      0.137640000000     0.806480000000     0.082040000000     0.0963136  
C380     C      0.142570000000     0.790480000000     0.959070000000     0.0721696  
C381     C      0.135850000000     0.834320000000     0.964580000000     0.0705439  
C382     C      0.133230000000     0.831120000000     0.011200000000    -0.0734457  
C383     C      0.394280000000     0.974540000000     0.913130000000     0.415648   
C384     C      0.388670000000     0.925940000000     0.933690000000     0.0984496  
C385     C      0.364040000000     0.959700000000     0.896040000000    -0.208076   
C386     C      0.294770000000     0.924970000000     0.880500000000    -0.0718619  
C387     C      0.358210000000     0.910530000000     0.917770000000    -0.115563   
C388     C      0.313280000000     0.911030000000     0.879500000000     0.0184395  
C389     C      0.345520000000     0.927290000000     0.898020000000     0.0959367  
C390     C      0.264590000000     0.909280000000     0.863360000000     0.0717786  
C391     C      0.270100000000     0.865990000000     0.844720000000     0.0716071  
C392     C      0.300570000000     0.881270000000     0.860710000000    -0.0726385  
C393     C      0.801120000000     0.635670000000     0.797050000000     0.416566   
C394     C      0.809580000000     0.686910000000     0.791020000000     0.0955932  
C395     C      0.798590000000     0.636630000000     0.843640000000    -0.209705   
C396     C      0.782620000000     0.641600000000     0.940990000000    -0.0719729  
C397     C      0.807570000000     0.688690000000     0.837590000000    -0.118571   
C398     C      0.803960000000     0.666110000000     0.914150000000     0.0171684  
C399     C      0.802640000000     0.663590000000     0.864500000000     0.0965986  
C400     C      0.786420000000     0.643020000000     0.987570000000     0.0721848  
C401     C      0.831420000000     0.692710000000     0.981680000000     0.0708398  
C402     C      0.828110000000     0.692200000000     0.935100000000    -0.0734431  
C403     C      0.849220000000     0.641950000000     0.486960000000     0.417107   
C404     C      0.855640000000     0.692470000000     0.482460000000     0.0966455  
C405     C      0.851200000000     0.640910000000     0.440250000000    -0.209285   
C406     C      0.830490000000     0.637220000000     0.343060000000    -0.0730954  
C407     C      0.858020000000     0.692220000000     0.435780000000    -0.117804   
C408     C      0.853690000000     0.663820000000     0.364370000000     0.0172823  
C409     C      0.854980000000     0.665910000000     0.414080000000     0.0962684  
C410     C      0.827430000000     0.636690000000     0.296430000000     0.0713705  
C411     C      0.870830000000     0.687510000000     0.291220000000     0.070695   
C412     C      0.874330000000     0.688950000000     0.337850000000    -0.0735225  
C413     C      0.598570000000     0.576390000000     0.529550000000     0.415499   
C414     C      0.603940000000     0.533290000000     0.508790000000     0.0965923  
C415     C      0.628620000000     0.591400000000     0.547280000000    -0.208362   
C416     C      0.697650000000     0.625270000000     0.564200000000    -0.0721742  
C417     C      0.634220000000     0.547980000000     0.525350000000    -0.116482   
C418     C      0.678950000000     0.592840000000     0.564720000000     0.0184929  
C419     C      0.646920000000     0.577260000000     0.545550000000     0.095799   
C420     C      0.727620000000     0.639420000000     0.581960000000     0.0726221  
C421     C      0.721590000000     0.590350000000     0.600270000000     0.074584   
C422     C      0.691280000000     0.575460000000     0.583650000000    -0.0710534  
C423     C      0.935940000000     0.692760000000     0.680370000000     0.417176   
C424     C      0.931320000000     0.736860000000     0.696980000000     0.0966874  
C425     C      0.966400000000     0.707930000000     0.696800000000    -0.206868   
C426     C      0.026040000000     0.738160000000     0.749970000000    -0.0709694  
C427     C      0.961090000000     0.752080000000     0.715220000000    -0.117079   
C428     C      0.011860000000     0.754520000000     0.733410000000     0.0178393  
C429     C      0.979440000000     0.737950000000     0.715030000000     0.0952184  
C430     C      0.056530000000     0.754180000000     0.766050000000     0.0718545  
C431     C      0.059030000000     0.802300000000     0.752590000000     0.07049    
C432     C      0.029130000000     0.787110000000     0.734680000000    -0.0736867  
Cu1      Cu     0.830720000000     0.689800000000     0.636080000000     0.848451   
Cu2      Cu     0.827610000000     0.638930000000     0.642890000000     0.902605   
Cu3      Cu     0.160860000000     0.856700000000     0.810670000000     0.853378   
Cu4      Cu     0.163870000000     0.808840000000     0.803920000000     0.858428   
Cu5      Cu     0.498610000000     0.024990000000     0.966700000000     0.867646   
Cu6      Cu     0.494410000000     0.973710000000     0.974710000000     0.887297   
Cu7      Cu     0.164390000000     0.357550000000     0.301080000000     0.884275   
Cu8      Cu     0.161920000000     0.307030000000     0.308920000000     0.866292   
Cu9      Cu     0.828910000000     0.189380000000     0.139200000000     0.871876   
Cu10     Cu     0.831250000000     0.141120000000     0.133840000000     0.850581   
Cu11     Cu     0.494460000000     0.523340000000     0.475040000000     0.88394    
Cu12     Cu     0.498360000000     0.476070000000     0.467380000000     0.871448   
Cu13     Cu     0.139580000000     0.307290000000     0.808060000000     0.848248   
Cu14     Cu     0.188470000000     0.357330000000     0.802650000000     0.87277    
Cu15     Cu     0.305140000000     0.141040000000     0.634600000000     0.863587   
Cu16     Cu     0.355370000000     0.189300000000     0.642660000000     0.887428   
Cu17     Cu     0.973850000000     0.476560000000     0.968690000000     0.86637    
Cu18     Cu     0.023790000000     0.525440000000     0.973930000000     0.900379   
Cu19     Cu     0.638670000000     0.810250000000     0.299060000000     0.872157   
Cu20     Cu     0.689990000000     0.857300000000     0.306760000000     0.8645     
Cu21     Cu     0.805190000000     0.639470000000     0.142520000000     0.860192   
Cu22     Cu     0.853260000000     0.690090000000     0.135700000000     0.849996   
Cu23     Cu     0.475130000000     0.975690000000     0.474070000000     0.872427   
Cu24     Cu     0.522840000000     0.026580000000     0.467240000000     0.867892   
Cu25     Cu     0.356980000000     0.166950000000     0.141860000000     0.887162   
Cu26     Cu     0.306500000000     0.164680000000     0.135190000000     0.849777   
Cu27     Cu     0.521390000000     0.497890000000     0.967750000000     0.885518   
Cu28     Cu     0.473170000000     0.500120000000     0.974310000000     0.851993   
Cu29     Cu     0.187100000000     0.831270000000     0.303840000000     0.886079   
Cu30     Cu     0.139330000000     0.834310000000     0.310490000000     0.863949   
Cu31     Cu     0.024030000000     0.500920000000     0.475900000000     0.852073   
Cu32     Cu     0.972920000000     0.496970000000     0.466750000000     0.876995   
Cu33     Cu     0.855120000000     0.163580000000     0.632530000000     0.847033   
Cu34     Cu     0.807920000000     0.167590000000     0.640460000000     0.873037   
Cu35     Cu     0.687780000000     0.833340000000     0.806230000000     0.864798   
Cu36     Cu     0.637410000000     0.831300000000     0.799690000000     0.87347    
F1       F      0.756170000000     0.930090000000     0.785380000000    -0.449282   
F2       F      0.906280000000     0.399680000000     0.484450000000    -0.445572   
F3       F      0.072340000000     0.747370000000     0.369840000000    -0.448254   
F4       F      0.592510000000     0.595040000000     0.948680000000    -0.441941   
F5       F      0.331030000000     0.069640000000     0.159950000000    -0.445893   
F6       F      0.425200000000     0.263930000000     0.121620000000    -0.444636   
F7       F      0.718480000000     0.856230000000     0.443180000000    -0.449521   
F8       F      0.617300000000     0.851680000000     0.931950000000    -0.443096   
F9       F      0.657420000000     0.741610000000     0.242300000000    -0.447039   
F10      F      0.504700000000     0.908450000000     0.453210000000    -0.446961   
F11      F      0.042330000000     0.565130000000     0.841450000000    -0.433345   
F12      F      0.955740000000     0.435990000000     0.100300000000    -0.447409   
F13      F      0.996960000000     0.595500000000     0.994280000000    -0.440625   
F14      F      0.282450000000     0.100650000000     0.767180000000    -0.449486   
F15      F      0.379170000000     0.228860000000     0.510170000000    -0.440667   
F16      F      0.424160000000     0.161100000000     0.623240000000    -0.441486   
F17      F      0.088540000000     0.504390000000     0.910190000000    -0.439104   
F18      F      0.258600000000     0.330450000000     0.784860000000    -0.449399   
F19      F      0.463750000000     0.521750000000     0.611030000000    -0.441606   
F20      F      0.561060000000     0.516490000000     0.100540000000    -0.440831   
F21      F      0.809340000000     0.197800000000     0.776260000000    -0.447966   
F22      F      0.799990000000     0.191460000000     0.275440000000    -0.445705   
F23      F      0.149500000000     0.381700000000     0.433690000000    -0.447477   
F24      F      0.194470000000     0.386640000000     0.164990000000    -0.446517   
F25      F      0.076500000000     0.242970000000     0.245690000000    -0.451591   
F26      F      0.411100000000     0.408160000000     0.409590000000    -0.445511   
F27      F      0.511700000000     0.950530000000     0.842030000000    -0.441364   
F28      F      0.523260000000     0.056440000000     0.331010000000    -0.445651   
F29      F      0.581720000000     0.992850000000     0.032790000000    -0.442572   
F30      F      0.226570000000     0.848640000000     0.436470000000    -0.446156   
F31      F      0.187560000000     0.802010000000     0.167620000000    -0.445339   
F32      F      0.411120000000     0.005960000000     0.909430000000    -0.445858   
F33      F      0.797450000000     0.608980000000     0.778840000000    -0.442258   
F34      F      0.845110000000     0.616730000000     0.510430000000    -0.439793   
F35      F      0.581920000000     0.591180000000     0.533050000000    -0.442583   
F36      F      0.924730000000     0.663860000000     0.662870000000    -0.438314   
H1       H      0.820370000000     0.066360000000     0.659620000000     0.0316376  
H2       H      0.664540000000     0.920530000000     0.741780000000     0.0310493  
H3       H      0.715790000000     0.025040000000     0.724170000000     0.0557612  
H4       H      0.689810000000     0.972190000000     0.710640000000     0.0666264  
H5       H      0.793610000000     0.013780000000     0.687530000000     0.0566743  
H6       H      0.778330000000     0.984510000000     0.752460000000     0.117394   
H7       H      0.742610000000     0.076960000000     0.693440000000     0.0360177  
H8       H      0.842600000000     0.264700000000     0.612220000000     0.0385733  
H9       H      0.998150000000     0.410890000000     0.530370000000     0.0272425  
H10      H      0.947540000000     0.306040000000     0.548930000000     0.053086   
H11      H      0.973240000000     0.359200000000     0.561650000000     0.0645333  
H12      H      0.869330000000     0.317100000000     0.583670000000     0.0601425  
H13      H      0.884580000000     0.345480000000     0.517770000000     0.120759   
H14      H      0.920710000000     0.254240000000     0.580210000000     0.0309764  
H15      H      0.998450000000     0.587700000000     0.414980000000     0.0365449  
H16      H      0.152990000000     0.734150000000     0.330690000000     0.0353552  
H17      H      0.112490000000     0.651240000000     0.422510000000     0.0556279  
H18      H      0.127060000000     0.681620000000     0.358530000000     0.0679854  
H19      H      0.023470000000     0.639670000000     0.384720000000     0.0591204  
H20      H      0.049620000000     0.692110000000     0.399540000000     0.119852   
H21      H      0.086730000000     0.598480000000     0.449940000000     0.0333758  
H22      H      0.657590000000     0.736060000000     0.832490000000     0.033006   
H23      H      0.500860000000     0.588060000000     0.912670000000     0.0271536  
H24      H      0.550640000000     0.690440000000     0.889490000000     0.0560669  
H25      H      0.525990000000     0.639240000000     0.881070000000     0.0665284  
H26      H      0.631950000000     0.683300000000     0.859610000000     0.057861   
H27      H      0.614960000000     0.649890000000     0.917180000000     0.119133   
H28      H      0.576060000000     0.741810000000     0.858090000000     0.0390331  
H29      H      0.255140000000     0.928480000000     0.276590000000     0.0388729  
H30      H      0.246570000000     0.076780000000     0.196730000000     0.0239333  
H31      H      0.194120000000     0.974630000000     0.219960000000     0.0512709  
H32      H      0.220710000000     0.025690000000     0.228550000000     0.0622813  
H33      H      0.282420000000     0.981200000000     0.249090000000     0.0587908  
H34      H      0.298790000000     0.014830000000     0.191670000000     0.119127   
H35      H      0.168100000000     0.923450000000     0.251720000000     0.0307641  
H36      H      0.488730000000     0.400890000000     0.996320000000     0.0379986  
H37      H      0.333440000000     0.253940000000     0.077720000000     0.0256294  
H38      H      0.383950000000     0.358180000000     0.060770000000     0.0539647  
H39      H      0.358520000000     0.305580000000     0.046730000000     0.0646644  
H40      H      0.462630000000     0.348300000000     0.024450000000     0.060054   
H41      H      0.447180000000     0.318390000000     0.088860000000     0.121269   
H42      H      0.410030000000     0.409980000000     0.029860000000     0.0330283  
H43      H      0.703650000000     0.814400000000     0.670450000000     0.035208   
H44      H      0.619500000000     0.776280000000     0.434920000000     0.0309148  
H45      H      0.614720000000     0.800880000000     0.579820000000     0.0562298  
H46      H      0.616450000000     0.769520000000     0.515700000000     0.0694596  
H47      H      0.705540000000     0.810360000000     0.589530000000     0.0581736  
H48      H      0.710220000000     0.845550000000     0.527520000000     0.11885    
H49      H      0.613410000000     0.804810000000     0.660790000000     0.0350303  
H50      H      0.615950000000     0.814940000000     0.160700000000     0.0383103  
H51      H      0.711570000000     0.859030000000     0.944540000000     0.0305067  
H52      H      0.710880000000     0.897380000000     0.088900000000     0.0545973  
H53      H      0.711320000000     0.863780000000     0.025300000000     0.0664953  
H54      H      0.617300000000     0.820470000000     0.079870000000     0.0618737  
H55      H      0.621630000000     0.856830000000     0.017720000000     0.12293    
H56      H      0.708830000000     0.891390000000     0.170040000000     0.0319922  
H57      H      0.741720000000     0.666130000000     0.197470000000     0.0352721  
H58      H      0.751670000000     0.821730000000     0.281140000000     0.0298031  
H59      H      0.793360000000     0.780290000000     0.190150000000     0.0519665  
H60      H      0.777760000000     0.795190000000     0.253850000000     0.0642442  
H61      H      0.715320000000     0.691640000000     0.227840000000     0.0590385  
H62      H      0.689460000000     0.718200000000     0.213050000000     0.119883   
H63      H      0.819820000000     0.754030000000     0.162640000000     0.0304495  
H64      H      0.576690000000     0.845440000000     0.326050000000     0.0348724  
H65      H      0.586350000000     0.000690000000     0.410700000000     0.0307787  
H66      H      0.640140000000     0.949780000000     0.391440000000     0.0538129  
H67      H      0.613110000000     0.975870000000     0.379140000000     0.0661265  
H68      H      0.551040000000     0.872190000000     0.354380000000     0.059265   
H69      H      0.537250000000     0.886840000000     0.419910000000     0.119465   
H70      H      0.665140000000     0.922960000000     0.360200000000     0.034905   
H71      H      0.952030000000     0.510680000000     0.603110000000     0.0399353  
H72      H      0.948530000000     0.477440000000     0.830500000000     0.0296875  
H73      H      0.042780000000     0.531650000000     0.695510000000     0.0618518  
H74      H      0.948690000000     0.481430000000     0.749490000000     0.0689333  
H75      H      0.949230000000     0.514800000000     0.684140000000     0.0610058  
H76      H      0.037970000000     0.564750000000     0.755680000000     0.123603   
H77      H      0.044850000000     0.527220000000     0.614860000000     0.0340832  
H78      H      0.952160000000     0.470880000000     0.327790000000     0.0394416  
H79      H      0.048760000000     0.524490000000     0.112560000000     0.0334156  
H80      H      0.048480000000     0.485480000000     0.257970000000     0.0567969  
H81      H      0.048620000000     0.519610000000     0.193510000000     0.0684518  
H82      H      0.954570000000     0.467650000000     0.247000000000     0.0611871  
H83      H      0.960080000000     0.435500000000     0.185950000000     0.120945   
H84      H      0.045330000000     0.488360000000     0.339190000000     0.0342376  
H85      H      0.920810000000     0.660190000000     0.110260000000     0.0324161  
H86      H      0.912790000000     0.503490000000     0.030350000000     0.0326022  
H87      H      0.859780000000     0.552880000000     0.054260000000     0.055437   
H88      H      0.886520000000     0.528400000000     0.062190000000     0.0670049  
H89      H      0.948050000000     0.634600000000     0.083460000000     0.0576899  
H90      H      0.964420000000     0.617630000000     0.025990000000     0.11935    
H91      H      0.833730000000     0.578270000000     0.085350000000     0.03379    
H92      H      0.282020000000     0.136590000000     0.996960000000     0.0320591  
H93      H      0.377810000000     0.185960000000     0.780920000000     0.0335631  
H94      H      0.375410000000     0.145910000000     0.924340000000     0.0604962  
H95      H      0.376890000000     0.180760000000     0.861600000000     0.0692204  
H96      H      0.282800000000     0.131980000000     0.916030000000     0.0574422  
H97      H      0.286140000000     0.099530000000     0.853120000000     0.118385   
H98      H      0.373950000000     0.150310000000     0.005350000000     0.0419024  
H99      H      0.289840000000     0.182790000000     0.270790000000     0.0313637  
H100     H      0.282560000000     0.145430000000     0.496110000000     0.0258855  
H101     H      0.378390000000     0.196170000000     0.362240000000     0.0633525  
H102     H      0.284010000000     0.150550000000     0.415240000000     0.064508   
H103     H      0.287540000000     0.186490000000     0.351840000000     0.0537481  
H104     H      0.376010000000     0.229870000000     0.424290000000     0.124134   
H105     H      0.379980000000     0.192190000000     0.281300000000     0.0418963  
H106     H      0.489200000000     0.089820000000     0.496760000000     0.0392736  
H107     H      0.332970000000     0.079630000000     0.577010000000     0.0282428  
H108     H      0.384000000000     0.026460000000     0.559270000000     0.0550284  
H109     H      0.358480000000     0.053610000000     0.545730000000     0.066066   
H110     H      0.462620000000     0.115680000000     0.525290000000     0.0617487  
H111     H      0.446630000000     0.129160000000     0.590060000000     0.121326   
H112     H      0.410600000000     0.001390000000     0.527930000000     0.0346334  
H113     H      0.161520000000     0.419900000000     0.858950000000     0.0342845  
H114     H      0.005600000000     0.410890000000     0.943960000000     0.0301213  
H115     H      0.047230000000     0.365500000000     0.861120000000     0.0520234  
H116     H      0.031180000000     0.383680000000     0.917470000000     0.0645869  
H117     H      0.136370000000     0.446290000000     0.889590000000     0.0590618  
H118     H      0.110610000000     0.471560000000     0.880220000000     0.120466   
H119     H      0.073570000000     0.338870000000     0.834830000000     0.0299568  
H120     H      0.324380000000     0.255970000000     0.668020000000     0.0378686  
H121     H      0.166980000000     0.246210000000     0.747610000000     0.0235609  
H122     H      0.216990000000     0.193740000000     0.723020000000     0.0525501  
H123     H      0.192200000000     0.220250000000     0.715730000000     0.0625918  
H124     H      0.298310000000     0.282620000000     0.695150000000     0.0582492  
H125     H      0.281070000000     0.298240000000     0.753080000000     0.117728   
H126     H      0.242870000000     0.168280000000     0.691550000000     0.0361417  
H127     H      0.437390000000     0.479730000000     0.838980000000     0.0345815  
H128     H      0.483600000000     0.442280000000     0.603300000000     0.0315857  
H129     H      0.513840000000     0.468470000000     0.747560000000     0.057484   
H130     H      0.480080000000     0.435750000000     0.684130000000     0.0686825  
H131     H      0.431130000000     0.475480000000     0.758030000000     0.060358   
H132     H      0.461470000000     0.511250000000     0.695490000000     0.121692   
H133     H      0.519500000000     0.472740000000     0.828450000000     0.0368187  
H134     H      0.525490000000     0.480420000000     0.328960000000     0.039128   
H135     H      0.475990000000     0.527140000000     0.112350000000     0.0281335  
H136     H      0.514430000000     0.563850000000     0.257330000000     0.0581628  
H137     H      0.480740000000     0.531540000000     0.193200000000     0.0675231  
H138     H      0.529580000000     0.485910000000     0.248160000000     0.062181   
H139     H      0.561710000000     0.521460000000     0.186260000000     0.121481   
H140     H      0.510500000000     0.557830000000     0.338470000000     0.0371899  
H141     H      0.849490000000     0.224130000000     0.003520000000     0.035051   
H142     H      0.888370000000     0.177300000000     0.769100000000     0.0246019  
H143     H      0.862940000000     0.148130000000     0.914290000000     0.0532749  
H144     H      0.894720000000     0.180830000000     0.850020000000     0.0633635  
H145     H      0.854370000000     0.230090000000     0.922680000000     0.0580939  
H146     H      0.819490000000     0.199900000000     0.860660000000     0.119496   
H147     H      0.858220000000     0.142880000000     0.995260000000     0.0314772  
H148     H      0.772610000000     0.151100000000     0.504710000000     0.034344   
H149     H      0.812700000000     0.107400000000     0.269270000000     0.0253386  
H150     H      0.844810000000     0.133700000000     0.412370000000     0.0532254  
H151     H      0.809180000000     0.101600000000     0.350120000000     0.0644066  
H152     H      0.765920000000     0.147130000000     0.423780000000     0.0588918  
H153     H      0.797320000000     0.181450000000     0.360180000000     0.120598   
H154     H      0.850950000000     0.137780000000     0.493170000000     0.0310678  
H155     H      0.105790000000     0.291940000000     0.672440000000     0.0300479  
H156     H      0.135200000000     0.284580000000     0.447480000000     0.0273127  
H157     H      0.181850000000     0.380530000000     0.581980000000     0.0596873  
H158     H      0.132170000000     0.286220000000     0.528390000000     0.0645259  
H159     H      0.100020000000     0.290110000000     0.591480000000     0.0522344  
H160     H      0.145960000000     0.378710000000     0.519640000000     0.118606   
H161     H      0.187200000000     0.381670000000     0.663050000000     0.0356115  
H162     H      0.222830000000     0.371850000000     0.938170000000     0.0370716  
H163     H      0.177000000000     0.288150000000     0.173310000000     0.0320701  
H164     H      0.145900000000     0.283690000000     0.028460000000     0.0553626  
H165     H      0.180430000000     0.285060000000     0.092440000000     0.0664722  
H166     H      0.228640000000     0.373440000000     0.019090000000     0.0585741  
H167     H      0.196860000000     0.378400000000     0.080580000000     0.120001   
H168     H      0.140610000000     0.282730000000     0.947400000000     0.03148    
H169     H      0.919840000000     0.169430000000     0.194200000000     0.0310983  
H170     H      0.066350000000     0.326460000000     0.277520000000     0.0316412  
H171     H      0.978980000000     0.283820000000     0.194140000000     0.0554244  
H172     H      0.013510000000     0.300750000000     0.250690000000     0.0666247  
H173     H      0.971010000000     0.195210000000     0.225880000000     0.0555635  
H174     H      0.021830000000     0.220910000000     0.215510000000     0.116662   
H175     H      0.926210000000     0.256830000000     0.166730000000     0.0357717  
H176     H      0.251780000000     0.333670000000     0.363930000000     0.0332263  
H177     H      0.397520000000     0.488710000000     0.448210000000     0.0331368  
H178     H      0.314520000000     0.447800000000     0.356530000000     0.0564543  
H179     H      0.345040000000     0.462600000000     0.420330000000     0.068164   
H180     H      0.303560000000     0.359010000000     0.394530000000     0.0582321  
H181     H      0.355870000000     0.385240000000     0.379750000000     0.119128   
H182     H      0.261810000000     0.421660000000     0.328750000000     0.0406712  
H183     H      0.478210000000     0.951600000000     0.612240000000     0.0389329  
H184     H      0.525570000000     0.047490000000     0.828800000000     0.0325706  
H185     H      0.562560000000     0.044620000000     0.685200000000     0.0559169  
H186     H      0.530400000000     0.046840000000     0.748190000000     0.0687415  
H187     H      0.483240000000     0.952340000000     0.693100000000     0.0614753  
H188     H      0.517400000000     0.954600000000     0.756260000000     0.121314   
H189     H      0.556940000000     0.043220000000     0.604070000000     0.0339596  
H190     H      0.481540000000     0.043320000000     0.102820000000     0.03857    
H191     H      0.440780000000     0.958810000000     0.338450000000     0.0320037  
H192     H      0.464520000000     0.953400000000     0.194260000000     0.0585176  
H193     H      0.433890000000     0.956480000000     0.257790000000     0.0692646  
H194     H      0.477950000000     0.045810000000     0.183890000000     0.0622968  
H195     H      0.512280000000     0.048980000000     0.246600000000     0.121476   
H196     H      0.468070000000     0.951530000000     0.113440000000     0.0393457  
H197     H      0.731860000000     0.156080000000     0.110140000000     0.0383981  
H198     H      0.595750000000     0.086860000000     0.992360000000     0.0290082  
H199     H      0.689580000000     0.050870000000     0.047290000000     0.0588193  
H200     H      0.648390000000     0.113160000000     0.019450000000     0.0670224  
H201     H      0.679140000000     0.129410000000     0.082650000000     0.0566907  
H202     H      0.637220000000     0.025140000000     0.061800000000     0.119818   
H203     H      0.741470000000     0.077510000000     0.077700000000     0.0328749  
H204     H      0.178430000000     0.891400000000     0.674740000000     0.0322575  
H205     H      0.142860000000     0.861540000000     0.448690000000     0.0298718  
H206     H      0.193620000000     0.817140000000     0.583880000000     0.0602514  
H207     H      0.147520000000     0.865410000000     0.529600000000     0.0663424  
H208     H      0.182400000000     0.897470000000     0.593670000000     0.0537195  
H209     H      0.227110000000     0.853040000000     0.522260000000     0.119439   
H210     H      0.189420000000     0.811540000000     0.664750000000     0.034319   
H211     H      0.146380000000     0.774200000000     0.939790000000     0.0372075  
H212     H      0.105040000000     0.817120000000     0.175020000000     0.0272167  
H213     H      0.130220000000     0.847820000000     0.030660000000     0.0530639  
H214     H      0.098680000000     0.813430000000     0.094190000000     0.0648195  
H215     H      0.142320000000     0.768020000000     0.020700000000     0.0619317  
H216     H      0.177100000000     0.799350000000     0.083120000000     0.120779   
H217     H      0.134290000000     0.853400000000     0.949720000000     0.0313284  
H218     H      0.251100000000     0.920910000000     0.865280000000     0.0340122  
H219     H      0.397370000000     0.911810000000     0.948380000000     0.0321298  
H220     H      0.314050000000     0.869720000000     0.857940000000     0.0559317  
H221     H      0.344720000000     0.885560000000     0.921350000000     0.0678904  
H222     H      0.303150000000     0.947680000000     0.895250000000     0.0591214  
H223     H      0.355590000000     0.973720000000     0.880460000000     0.119744   
H224     H      0.261250000000     0.842930000000     0.830830000000     0.0339138  
H225     H      0.769740000000     0.623250000000     0.007000000000     0.0367032  
H226     H      0.814120000000     0.707220000000     0.771650000000     0.0254807  
H227     H      0.845190000000     0.711580000000     0.915510000000     0.0533922  
H228     H      0.810390000000     0.709820000000     0.852480000000     0.0649096  
H229     H      0.763410000000     0.621180000000     0.926040000000     0.0617144  
H230     H      0.794730000000     0.616710000000     0.863380000000     0.121751   
H231     H      0.850990000000     0.712990000000     0.996380000000     0.0310872  
H232     H      0.808610000000     0.615940000000     0.281440000000     0.0340249  
H233     H      0.857230000000     0.713040000000     0.497610000000     0.0265573  
H234     H      0.892830000000     0.709790000000     0.353060000000     0.055734   
H235     H      0.860900000000     0.712050000000     0.416730000000     0.0652169  
H236     H      0.813950000000     0.617330000000     0.362390000000     0.0595552  
H237     H      0.849350000000     0.620380000000     0.424610000000     0.121386   
H238     H      0.886970000000     0.707730000000     0.272040000000     0.0322133  
H239     H      0.741260000000     0.664540000000     0.580380000000     0.0329331  
H240     H      0.595200000000     0.510560000000     0.493800000000     0.0291118  
H241     H      0.677620000000     0.550420000000     0.586030000000     0.057464   
H242     H      0.647570000000     0.536330000000     0.521920000000     0.0674784  
H243     H      0.689580000000     0.639820000000     0.549340000000     0.057796   
H244     H      0.637090000000     0.613770000000     0.563180000000     0.119411   
H245     H      0.730180000000     0.575930000000     0.614230000000     0.0421932  
H246     H      0.066600000000     0.740590000000     0.778150000000     0.0366005  
H247     H      0.918210000000     0.748910000000     0.698200000000     0.0245787  
H248     H      0.020100000000     0.801210000000     0.721230000000     0.0515852  
H249     H      0.969200000000     0.774710000000     0.730000000000     0.0628523  
H250     H      0.013800000000     0.713070000000     0.751100000000     0.0606004  
H251     H      0.979620000000     0.696120000000     0.694440000000     0.120866   
H252     H      0.071350000000     0.827470000000     0.752620000000     0.0304279  
N1       N      0.706540000000     0.922080000000     0.763220000000    -0.240619   
N2       N      0.783620000000     0.075690000000     0.674760000000    -0.189783   
N3       N      0.955990000000     0.408630000000     0.508100000000    -0.241252   
N4       N      0.879500000000     0.255430000000     0.597980000000    -0.189323   
N5       N      0.116320000000     0.743240000000     0.347750000000    -0.239719   
N6       N      0.040700000000     0.589080000000     0.434290000000    -0.189648   
N7       N      0.542900000000     0.588570000000     0.930740000000    -0.241224   
N8       N      0.618750000000     0.742820000000     0.843230000000    -0.189367   
N9       N      0.287980000000     0.076170000000     0.178260000000    -0.242103   
N10      N      0.209660000000     0.922120000000     0.266340000000    -0.189417   
N11      N      0.375500000000     0.255700000000     0.099360000000    -0.241199   
N12      N      0.451430000000     0.409430000000     0.011150000000    -0.189069   
N13      N      0.666090000000     0.815050000000     0.434640000000    -0.240703   
N14      N      0.658710000000     0.810640000000     0.671580000000    -0.189257   
N15      N      0.666650000000     0.854390000000     0.934370000000    -0.239973   
N16      N      0.662490000000     0.852340000000     0.171320000000    -0.189189   
N17      N      0.705760000000     0.785360000000     0.264110000000    -0.24057    
N18      N      0.782840000000     0.708160000000     0.178150000000    -0.189939   
N19      N      0.546030000000     0.958370000000     0.431450000000    -0.240831   
N20      N      0.622790000000     0.882050000000     0.341410000000    -0.189511   
N21      N      0.993310000000     0.518050000000     0.839910000000    -0.2389     
N22      N      0.998430000000     0.518120000000     0.603030000000    -0.189238   
N23      N      0.004350000000     0.483520000000     0.102560000000    -0.240122   
N24      N      0.998730000000     0.480390000000     0.339460000000    -0.188975   
N25      N      0.954100000000     0.545710000000     0.012330000000    -0.240352   
N26      N      0.875310000000     0.621170000000     0.099820000000    -0.190071   
N27      N      0.332460000000     0.146400000000     0.770190000000    -0.240079   
N28      N      0.328150000000     0.144460000000     0.007100000000    -0.188686   
N29      N      0.328460000000     0.184020000000     0.507000000000    -0.240684   
N30      N      0.334800000000     0.186590000000     0.270080000000    -0.188931   
N31      N      0.374760000000     0.119790000000     0.599730000000    -0.240209   
N32      N      0.451990000000     0.043710000000     0.510440000000    -0.189078   
N33      N      0.043580000000     0.456460000000     0.929800000000    -0.240655   
N34      N      0.119440000000     0.377390000000     0.844830000000    -0.190441   
N35      N      0.209010000000     0.287570000000     0.766050000000    -0.242432   
N36      N      0.285610000000     0.210210000000     0.677810000000    -0.189101   
N37      N      0.475440000000     0.480850000000     0.602780000000    -0.239592   
N38      N      0.479290000000     0.477260000000     0.839670000000    -0.189326   
N39      N      0.515350000000     0.520900000000     0.102530000000    -0.239702   
N40      N      0.517100000000     0.518320000000     0.339690000000    -0.188388   
N41      N      0.850040000000     0.185800000000     0.768300000000    -0.241351   
N42      N      0.852730000000     0.182640000000     0.005330000000    -0.189742   
N43      N      0.807970000000     0.148090000000     0.268010000000    -0.241128   
N44      N      0.812650000000     0.145360000000     0.504910000000    -0.190051   
N45      N      0.142970000000     0.330690000000     0.436700000000    -0.240794   
N46      N      0.147280000000     0.336670000000     0.673710000000    -0.189979   
N47      N      0.184050000000     0.334480000000     0.173520000000    -0.24059    
N48      N      0.180880000000     0.327510000000     0.936850000000    -0.189384   
N49      N      0.073700000000     0.288200000000     0.264500000000    -0.241148   
N50      N      0.919210000000     0.211190000000     0.178150000000    -0.189843   
N51      N      0.406780000000     0.452100000000     0.431370000000    -0.240156   
N52      N      0.252820000000     0.375760000000     0.344370000000    -0.188734   
N53      N      0.517900000000     0.001380000000     0.839280000000    -0.239208   
N54      N      0.516780000000     0.997590000000     0.602180000000    -0.188914   
N55      N      0.480750000000     0.004670000000     0.339120000000    -0.240194   
N56      N      0.475760000000     0.997530000000     0.102150000000    -0.1881     
N57      N      0.586260000000     0.041050000000     0.010130000000    -0.240081   
N58      N      0.740650000000     0.118870000000     0.095870000000    -0.1892     
N59      N      0.181560000000     0.854280000000     0.438670000000    -0.240155   
N60      N      0.183040000000     0.850680000000     0.675710000000    -0.189862   
N61      N      0.145010000000     0.811220000000     0.175690000000    -0.240787   
N62      N      0.141340000000     0.814670000000     0.938800000000    -0.189706   
N63      N      0.406740000000     0.957690000000     0.931300000000    -0.239941   
N64      N      0.252170000000     0.879820000000     0.846200000000    -0.189739   
N65      N      0.807520000000     0.661060000000     0.770900000000    -0.240913   
N66      N      0.811200000000     0.667960000000     0.007640000000    -0.189778   
N67      N      0.850370000000     0.667230000000     0.507920000000    -0.23987    
N68      N      0.846990000000     0.661930000000     0.270760000000    -0.190076   
N69      N      0.586060000000     0.547200000000     0.511010000000    -0.240544   
N70      N      0.739690000000     0.622090000000     0.599270000000    -0.188484   
N71      N      0.918560000000     0.707260000000     0.680250000000    -0.240955   
N72      N      0.072830000000     0.786010000000     0.767550000000    -0.190094   
O1       O      0.785640000000     0.666110000000     0.616640000000    -0.395187   
O2       O      0.875380000000     0.708640000000     0.656380000000    -0.401881   
O3       O      0.843510000000     0.689800000000     0.571200000000    -0.39865    
O4       O      0.817750000000     0.684800000000     0.701630000000    -0.400174   
O5       O      0.815970000000     0.639360000000     0.708040000000    -0.35429    
O6       O      0.839330000000     0.643260000000     0.577060000000    -0.349569   
O7       O      0.873370000000     0.662950000000     0.660040000000    -0.34836    
O8       O      0.782260000000     0.620000000000     0.624960000000    -0.383929   
O9       O      0.116050000000     0.830790000000     0.790780000000    -0.396252   
O10      O      0.206120000000     0.878050000000     0.829690000000    -0.393736   
O11      O      0.173490000000     0.864530000000     0.745050000000    -0.394506   
O12      O      0.148310000000     0.844110000000     0.875610000000    -0.394757   
O13      O      0.152480000000     0.801680000000     0.869960000000    -0.39307    
O14      O      0.175090000000     0.820720000000     0.738540000000    -0.394096   
O15      O      0.209300000000     0.835220000000     0.821220000000    -0.393129   
O16      O      0.118060000000     0.787070000000     0.787370000000    -0.39147    
O17      O      0.453130000000     0.001630000000     0.948530000000    -0.353736   
O18      O      0.543710000000     0.043370000000     0.985100000000    -0.399387   
O19      O      0.510450000000     0.024050000000     0.901800000000    -0.393542   
O20      O      0.486560000000     0.021060000000     0.032690000000    -0.389064   
O21      O      0.482560000000     0.974590000000     0.039560000000    -0.389288   
O22      O      0.506590000000     0.977710000000     0.908820000000    -0.350019   
O23      O      0.539880000000     0.997080000000     0.992980000000    -0.350143   
O24      O      0.449330000000     0.955350000000     0.956190000000    -0.39478    
O25      O      0.118540000000     0.332890000000     0.284380000000    -0.391184   
O26      O      0.209880000000     0.377120000000     0.318600000000    -0.383377   
O27      O      0.175760000000     0.356590000000     0.235990000000    -0.356512   
O28      O      0.153070000000     0.353810000000     0.367010000000    -0.356972   
O29      O      0.149440000000     0.307570000000     0.373800000000    -0.3992     
O30      O      0.174490000000     0.311440000000     0.243240000000    -0.393037   
O31      O      0.207070000000     0.331330000000     0.327780000000    -0.396506   
O32      O      0.117160000000     0.287540000000     0.289080000000    -0.359152   
O33      O      0.783610000000     0.163370000000     0.120950000000    -0.38829    
O34      O      0.874510000000     0.210730000000     0.156870000000    -0.38901    
O35      O      0.841100000000     0.196150000000     0.073410000000    -0.394817   
O36      O      0.816880000000     0.177880000000     0.204490000000    -0.354558   
O37      O      0.817860000000     0.133760000000     0.199200000000    -0.400395   
O38      O      0.844590000000     0.153280000000     0.069000000000    -0.394903   
O39      O      0.875880000000     0.166640000000     0.154650000000    -0.396599   
O40      O      0.786260000000     0.120170000000     0.113780000000    -0.394574   
O41      O      0.539940000000     0.545200000000     0.493280000000    -0.351559   
O42      O      0.449360000000     0.496840000000     0.456600000000    -0.395157   
O43      O      0.482580000000     0.510700000000     0.539950000000    -0.349648   
O44      O      0.506490000000     0.531300000000     0.409050000000    -0.390804   
O45      O      0.510200000000     0.488660000000     0.402460000000    -0.388729   
O46      O      0.486300000000     0.468130000000     0.533350000000    -0.394809   
O47      O      0.452920000000     0.454200000000     0.449170000000    -0.353495   
O48      O      0.543430000000     0.502540000000     0.485780000000    -0.400479   
O49      O      0.164690000000     0.287200000000     0.789030000000    -0.400623   
O50      O      0.119140000000     0.332410000000     0.825720000000    -0.394654   
O51      O      0.132810000000     0.312680000000     0.742450000000    -0.39766    
O52      O      0.151170000000     0.306590000000     0.873410000000    -0.394317   
O53      O      0.195210000000     0.351860000000     0.868300000000    -0.389399   
O54      O      0.176860000000     0.357930000000     0.737220000000    -0.392214   
O55      O      0.163500000000     0.377480000000     0.821580000000    -0.395939   
O56      O      0.208930000000     0.332340000000     0.785140000000    -0.358379   
O57      O      0.285190000000     0.166010000000     0.654370000000    -0.391604   
O58      O      0.329930000000     0.120610000000     0.615780000000    -0.396965   
O59      O      0.309570000000     0.132830000000     0.700250000000    -0.354776   
O60      O      0.305600000000     0.154110000000     0.569760000000    -0.400769   
O61      O      0.351690000000     0.196840000000     0.576650000000    -0.352724   
O62      O      0.354320000000     0.177010000000     0.707870000000    -0.395714   
O63      O      0.375360000000     0.163760000000     0.625550000000    -0.349877   
O64      O      0.330420000000     0.210170000000     0.658870000000    -0.390363   
O65      O      0.953800000000     0.501510000000     0.988730000000    -0.394276   
O66      O      0.998830000000     0.456230000000     0.949990000000    -0.395041   
O67      O      0.979780000000     0.469520000000     0.033980000000    -0.35619    
O68      O      0.972700000000     0.488390000000     0.903580000000    -0.397775   
O69      O      0.017880000000     0.532390000000     0.908510000000    -0.342016   
O70      O      0.024870000000     0.513600000000     0.039140000000    -0.395096   
O71      O      0.043860000000     0.500550000000     0.954000000000    -0.352456   
O72      O      0.998860000000     0.545810000000     0.992450000000    -0.353491   
O73      O      0.620380000000     0.837090000000     0.316970000000    -0.395715   
O74      O      0.661940000000     0.787980000000     0.281300000000    -0.354445   
O75      O      0.642600000000     0.802370000000     0.365130000000    -0.396031   
O76      O      0.639610000000     0.822770000000     0.234070000000    -0.389571   
O77      O      0.686110000000     0.865170000000     0.240680000000    -0.394785   
O78      O      0.688980000000     0.844770000000     0.371780000000    -0.356389   
O79      O      0.708250000000     0.830390000000     0.288800000000    -0.395936   
O80      O      0.666700000000     0.879620000000     0.324500000000    -0.391182   
O81      O      0.784220000000     0.663700000000     0.161550000000    -0.393696   
O82      O      0.830710000000     0.620110000000     0.122670000000    -0.394794   
O83      O      0.817760000000     0.639410000000     0.207460000000    -0.394089   
O84      O      0.797400000000     0.644450000000     0.076930000000    -0.392927   
O85      O      0.841470000000     0.689550000000     0.070310000000    -0.395413   
O86      O      0.860310000000     0.685880000000     0.201800000000    -0.395447   
O87      O      0.874640000000     0.665620000000     0.119330000000    -0.393143   
O88      O      0.827210000000     0.709530000000     0.152870000000    -0.394913   
O89      O      0.501310000000     0.956750000000     0.455680000000    -0.355936   
O90      O      0.453600000000     0.999550000000     0.492420000000    -0.394007   
O91      O      0.467650000000     0.980510000000     0.408150000000    -0.395645   
O92      O      0.487270000000     0.975710000000     0.539040000000    -0.38953    
O93      O      0.530280000000     0.021800000000     0.533240000000    -0.39339    
O94      O      0.510650000000     0.026490000000     0.402220000000    -0.354498   
O95      O      0.496650000000     0.045550000000     0.485700000000    -0.389133   
O96      O      0.544370000000     0.002640000000     0.448940000000    -0.395647   
O97      O      0.332460000000     0.121160000000     0.158320000000    -0.3568     
O98      O      0.376550000000     0.212430000000     0.124650000000    -0.355399   
O99      O      0.356530000000     0.178230000000     0.207300000000    -0.386565   
O100     O      0.352560000000     0.155600000000     0.075760000000    -0.38524    
O101     O      0.306160000000     0.151870000000     0.070370000000    -0.394824   
O102     O      0.311550000000     0.177450000000     0.200710000000    -0.395282   
O103     O      0.330920000000     0.209910000000     0.115990000000    -0.400271   
O104     O      0.287100000000     0.119830000000     0.155230000000    -0.402009   
O105     O      0.495610000000     0.452480000000     0.985550000000    -0.389365   
O106     O      0.542510000000     0.543610000000     0.950750000000    -0.352175   
O107     O      0.528490000000     0.509650000000     0.033670000000    -0.348085   
O108     O      0.509570000000     0.486220000000     0.902440000000    -0.392893   
O109     O      0.465360000000     0.486990000000     0.908840000000    -0.394094   
O110     O      0.485770000000     0.513180000000     0.039150000000    -0.39769    
O111     O      0.498470000000     0.544910000000     0.953900000000    -0.399758   
O112     O      0.452440000000     0.455020000000     0.993910000000    -0.394535   
O113     O      0.208770000000     0.877010000000     0.286640000000    -0.386448   
O114     O      0.160790000000     0.785940000000     0.321840000000    -0.388939   
O115     O      0.175080000000     0.819610000000     0.238670000000    -0.356275   
O116     O      0.194450000000     0.843060000000     0.369660000000    -0.355879   
O117     O      0.152110000000     0.847220000000     0.375350000000    -0.394161   
O118     O      0.131370000000     0.821250000000     0.244970000000    -0.39764    
O119     O      0.118070000000     0.789210000000     0.330080000000    -0.355108   
O120     O      0.165060000000     0.878990000000     0.290100000000    -0.397793   
O121     O      0.042780000000     0.546320000000     0.458850000000    -0.394238   
O122     O      0.000230000000     0.455080000000     0.492580000000    -0.398016   
O123     O      0.021180000000     0.490000000000     0.409590000000    -0.392618   
O124     O      0.022090000000     0.511760000000     0.540950000000    -0.395222   
O125     O      0.975790000000     0.507960000000     0.533020000000    -0.389584   
O126     O      0.974870000000     0.486170000000     0.401710000000    -0.389781   
O127     O      0.954200000000     0.451630000000     0.483720000000    -0.35593    
O128     O      0.996620000000     0.542710000000     0.450090000000    -0.393415   
O129     O      0.877260000000     0.209200000000     0.615040000000    -0.394368   
O130     O      0.828450000000     0.118350000000     0.650210000000    -0.395611   
O131     O      0.842590000000     0.152210000000     0.567390000000    -0.395416   
O132     O      0.862910000000     0.175150000000     0.698760000000    -0.39929    
O133     O      0.820480000000     0.179100000000     0.705370000000    -0.356602   
O134     O      0.799950000000     0.155850000000     0.574480000000    -0.395176   
O135     O      0.785850000000     0.121980000000     0.658150000000    -0.391213   
O136     O      0.834610000000     0.212790000000     0.622500000000    -0.389453   
O137     O      0.663200000000     0.787660000000     0.823190000000    -0.394335   
O138     O      0.707430000000     0.878740000000     0.788540000000    -0.355702   
O139     O      0.687670000000     0.845040000000     0.871540000000    -0.394527   
O140     O      0.683070000000     0.821610000000     0.740270000000    -0.392696   
O141     O      0.636830000000     0.818250000000     0.734870000000    -0.394414   
O142     O      0.642840000000     0.844450000000     0.865100000000    -0.352979   
O143     O      0.661890000000     0.876430000000     0.780110000000    -0.394899   
O144     O      0.617870000000     0.786470000000     0.820100000000    -0.389845   


