data_structure

_audit_creation_method RASPA-1.0
_audit_creation_date 2023-6-5
_audit_author_name 'Poobodin Mano'

_cell_length_a    49.7101
_cell_length_b    49.7614
_cell_length_c    29.7988
_cell_angle_alpha 89.9729
_cell_angle_beta  90.0273
_cell_angle_gamma 119.977
_cell_volume      63850.9

_symmetry_cell_setting          triclinic
_symmetry_space_group_name_Hall 'P 1'
_symmetry_space_group_name_H-M  'P 1'
_symmetry_Int_Tables_number     1

_symmetry_equiv_pos_as_xyz 'x,y,z'

loop_
_atom_site_label
_atom_site_type_symbol
_atom_site_fract_x
_atom_site_fract_y
_atom_site_fract_z
_atom_site_charge
C1       C      0.888460000000     0.695820000000     0.659980000000     0.40653    
C2       C      0.769480000000     0.633230000000     0.609420000000     0.40616    
C3       C      0.811840000000     0.660000000000     0.720700000000     0.406924   
C4       C      0.845150000000     0.668350000000     0.548650000000     0.405919   
C5       C      0.100640000000     0.802860000000     0.785660000000     0.404917   
C6       C      0.220680000000     0.865690000000     0.827770000000     0.410086   
C7       C      0.173630000000     0.845420000000     0.719730000000     0.405953   
C8       C      0.148530000000     0.822920000000     0.893660000000     0.410256   
C9       C      0.436430000000     0.970780000000     0.934390000000     0.406039   
C10      C      0.555170000000     0.024820000000     0.985170000000     0.405197   
C11      C      0.511360000000     0.000220000000     0.873470000000     0.405553   
C12      C      0.479970000000     0.995220000000     0.045770000000     0.406177   
C13      C      0.219280000000     0.361160000000     0.332300000000     0.406187   
C14      C      0.100670000000     0.305610000000     0.280560000000     0.406082   
C15      C      0.143750000000     0.331240000000     0.392470000000     0.406006   
C16      C      0.176710000000     0.335930000000     0.220420000000     0.40597    
C17      C      0.767950000000     0.129120000000     0.109490000000     0.406211   
C18      C      0.885650000000     0.198300000000     0.164420000000     0.406372   
C19      C      0.842850000000     0.180300000000     0.051500000000     0.406188   
C20      C      0.810690000000     0.147110000000     0.222710000000     0.406161   
C21      C      0.554170000000     0.521290000000     0.495180000000     0.406575   
C22      C      0.435060000000     0.465230000000     0.445550000000     0.407137   
C23      C      0.478850000000     0.478870000000     0.557820000000     0.405902   
C24      C      0.509950000000     0.506770000000     0.385360000000     0.405914   
C25      C      0.131540000000     0.357600000000     0.833900000000     0.407823   
C26      C      0.191250000000     0.299160000000     0.780500000000     0.406219   
C27      C      0.173930000000     0.324830000000     0.892680000000     0.405742   
C28      C      0.148280000000     0.331920000000     0.720620000000     0.405807   
C29      C      0.301070000000     0.193810000000     0.666100000000     0.407333   
C30      C      0.356770000000     0.131160000000     0.613060000000     0.407647   
C31      C      0.332760000000     0.149380000000     0.724250000000     0.40727    
C32      C      0.324420000000     0.175690000000     0.552630000000     0.406934   
C33      C      0.020360000000     0.463160000000     0.941770000000     0.406166   
C34      C      0.961300000000     0.524090000000     0.986730000000     0.406864   
C35      C      0.990950000000     0.507500000000     0.878130000000     0.407476   
C36      C      0.990930000000     0.479160000000     0.050970000000     0.407928   
C37      C      0.636200000000     0.862960000000     0.330710000000     0.407231   
C38      C      0.690720000000     0.798830000000     0.279350000000     0.406405   
C39      C      0.663340000000     0.815050000000     0.390540000000     0.406566   
C40      C      0.663140000000     0.846670000000     0.218940000000     0.40648    
C41      C      0.797640000000     0.692670000000     0.157780000000     0.406853   
C42      C      0.857930000000     0.633410000000     0.110130000000     0.406034   
C43      C      0.840600000000     0.659780000000     0.220880000000     0.406754   
C44      C      0.815410000000     0.665970000000     0.048180000000     0.406237   
C45      C      0.523630000000     0.968280000000     0.433870000000     0.406751   
C46      C      0.461040000000     0.024250000000     0.485480000000     0.406038   
C47      C      0.479830000000     0.000890000000     0.373520000000     0.406308   
C48      C      0.504910000000     0.991780000000     0.545590000000     0.406677   
C49      C      0.297140000000     0.104680000000     0.161130000000     0.406452   
C50      C      0.357660000000     0.224350000000     0.114420000000     0.405382   
C51      C      0.330460000000     0.179600000000     0.224770000000     0.405889   
C52      C      0.324610000000     0.149570000000     0.051770000000     0.406403   
C53      C      0.468000000000     0.439730000000     0.000400000000     0.407094   
C54      C      0.526220000000     0.557630000000     0.945630000000     0.405879   
C55      C      0.509700000000     0.516000000000     0.058030000000     0.406541   
C56      C      0.484130000000     0.481630000000     0.886340000000     0.405517   
C57      C      0.193160000000     0.890580000000     0.279530000000     0.405973   
C58      C      0.134620000000     0.771960000000     0.330790000000     0.406567   
C59      C      0.151630000000     0.814600000000     0.219250000000     0.406575   
C60      C      0.176370000000     0.847870000000     0.391370000000     0.406656   
C61      C      0.029160000000     0.555100000000     0.437900000000     0.40698    
C62      C      0.968680000000     0.436610000000     0.489810000000     0.407694   
C63      C      0.993340000000     0.479500000000     0.378780000000     0.407787   
C64      C      0.004420000000     0.513110000000     0.550890000000     0.406653   
C65      C      0.857710000000     0.223790000000     0.612340000000     0.405995   
C66      C      0.796450000000     0.104850000000     0.661850000000     0.405867   
C67      C      0.815000000000     0.148560000000     0.550720000000     0.40565    
C68      C      0.839140000000     0.180020000000     0.723400000000     0.405417   
C69      C      0.631230000000     0.771450000000     0.826840000000     0.40678    
C70      C      0.691410000000     0.891620000000     0.782660000000     0.406994   
C71      C      0.664110000000     0.846220000000     0.891400000000     0.406855   
C72      C      0.658850000000     0.816930000000     0.718220000000     0.406731   
C73      C      0.738130000000     0.942490000000     0.776050000000     0.101405   
C74      C      0.689800000000     0.932780000000     0.745740000000     0.0706164  
C75      C      0.752590000000     0.972530000000     0.757750000000    -0.0961608  
C76      C      0.781400000000     0.027690000000     0.695430000000    -0.0845902  
C77      C      0.703780000000     0.962420000000     0.727060000000    -0.0878882  
C78      C      0.751060000000     0.014290000000     0.712240000000     0.0323375  
C79      C      0.735600000000     0.982630000000     0.732410000000     0.0399772  
C80      C      0.796050000000     0.057800000000     0.678190000000     0.0702267  
C81      C      0.751070000000     0.061510000000     0.691930000000     0.0700675  
C82      C      0.735850000000     0.031570000000     0.709930000000    -0.0841431  
C83      C      0.964440000000     0.385980000000     0.498520000000     0.101494   
C84      C      0.925710000000     0.396110000000     0.527140000000     0.0709752  
C85      C      0.948520000000     0.356020000000     0.517020000000    -0.0953351  
C86      C      0.920960000000     0.299820000000     0.576850000000    -0.0841646  
C87      C      0.909950000000     0.366720000000     0.546580000000    -0.0876038  
C88      C      0.904640000000     0.314490000000     0.562310000000     0.0327803  
C89      C      0.921310000000     0.346200000000     0.542000000000     0.0395721  
C90      C      0.904960000000     0.269600000000     0.593700000000     0.070461   
C91      C      0.857010000000     0.268410000000     0.584980000000     0.0702127  
C92      C      0.872200000000     0.298310000000     0.566890000000    -0.0842822  
C93      C      0.072500000000     0.597560000000     0.398650000000     0.101516   
C94      C      0.031420000000     0.603310000000     0.429220000000     0.0710413  
C95      C      0.087120000000     0.628410000000     0.383610000000    -0.095673   
C96      C      0.122450000000     0.697660000000     0.373380000000    -0.0846292  
C97      C      0.045960000000     0.634210000000     0.415370000000    -0.0874298  
C98      C      0.089960000000     0.680150000000     0.376380000000     0.0328883  
C99      C      0.074180000000     0.647250000000     0.392210000000     0.0395616  
C100     C      0.136880000000     0.728050000000     0.357300000000     0.0708178  
C101     C      0.088110000000     0.725130000000     0.348820000000     0.0702995  
C102     C      0.072840000000     0.694360000000     0.363650000000    -0.0841602  
C103     C      0.584410000000     0.720590000000     0.832670000000     0.101231   
C104     C      0.632500000000     0.730110000000     0.863730000000     0.0705864  
C105     C      0.569780000000     0.690450000000     0.850630000000    -0.096026   
C106     C      0.540480000000     0.634530000000     0.911840000000    -0.0843473  
C107     C      0.618340000000     0.700360000000     0.882070000000    -0.087854   
C108     C      0.571000000000     0.648300000000     0.895560000000     0.0326352  
C109     C      0.586560000000     0.680170000000     0.876090000000     0.0395904  
C110     C      0.525930000000     0.604310000000     0.928770000000     0.0701741  
C111     C      0.571260000000     0.601160000000     0.915350000000     0.0703517  
C112     C      0.586360000000     0.631170000000     0.897720000000    -0.0843241  
C113     C      0.250270000000     0.053800000000     0.167620000000     0.100848   
C114     C      0.298460000000     0.063510000000     0.198510000000     0.070346   
C115     C      0.235800000000     0.023620000000     0.185510000000    -0.0955801  
C116     C      0.206820000000     0.967370000000     0.246190000000    -0.0844563  
C117     C      0.284460000000     0.033760000000     0.216790000000    -0.0876087  
C118     C      0.237380000000     0.981450000000     0.230070000000     0.0331193  
C119     C      0.252720000000     0.013400000000     0.210770000000     0.0391038  
C120     C      0.192480000000     0.937110000000     0.262950000000     0.0701999  
C121     C      0.238140000000     0.934520000000     0.249780000000     0.0702281  
C122     C      0.253030000000     0.964590000000     0.232280000000    -0.0842945  
C123     C      0.469180000000     0.398240000000     0.042000000000     0.101841   
C124     C      0.422140000000     0.391620000000     0.010950000000     0.0712084  
C125     C      0.453160000000     0.367710000000     0.058420000000    -0.0958449  
C126     C      0.419690000000     0.298660000000     0.071530000000    -0.084288   
C127     C      0.405940000000     0.361000000000     0.026200000000    -0.0871633  
C128     C      0.404480000000     0.315910000000     0.067380000000     0.0327307  
C129     C      0.421350000000     0.348540000000     0.050270000000     0.0396488  
C130     C      0.403910000000     0.268450000000     0.088360000000     0.0704099  
C131     C      0.357820000000     0.271030000000     0.095710000000     0.0702412  
C132     C      0.373130000000     0.301630000000     0.080080000000    -0.0838716  
C133     C      0.637330000000     0.784210000000     0.457670000000     0.100063   
C134     C      0.687750000000     0.828820000000     0.461520000000     0.0700393  
C135     C      0.636540000000     0.782340000000     0.504780000000    -0.0964331  
C136     C      0.633500000000     0.802400000000     0.600910000000    -0.0849074  
C137     C      0.687570000000     0.826950000000     0.508140000000    -0.0882813  
C138     C      0.659580000000     0.804340000000     0.579930000000     0.0328518  
C139     C      0.661430000000     0.804180000000     0.530300000000     0.0396478  
C140     C      0.633330000000     0.805940000000     0.647360000000     0.0704765  
C141     C      0.683460000000     0.811510000000     0.653010000000     0.0704426  
C142     C      0.684560000000     0.808490000000     0.606550000000    -0.0851907  
C143     C      0.688480000000     0.877960000000     0.151840000000     0.0996849  
C144     C      0.637900000000     0.833560000000     0.148520000000     0.0698105  
C145     C      0.688580000000     0.880340000000     0.104800000000    -0.0961027  
C146     C      0.690600000000     0.861180000000     0.008110000000    -0.0849754  
C147     C      0.637430000000     0.835900000000     0.102010000000    -0.0882257  
C148     C      0.664600000000     0.858900000000     0.029840000000     0.0328604  
C149     C      0.663290000000     0.858830000000     0.079540000000     0.0395526  
C150     C      0.690310000000     0.857660000000     0.961650000000     0.0707767  
C151     C      0.639880000000     0.851460000000     0.957290000000     0.0701328  
C152     C      0.639230000000     0.854470000000     0.003850000000    -0.0849297  
C153     C      0.793450000000     0.739350000000     0.164830000000     0.101142   
C154     C      0.754570000000     0.690880000000     0.194250000000     0.0703381  
C155     C      0.777840000000     0.753730000000     0.183260000000    -0.0961334  
C156     C      0.751890000000     0.782070000000     0.246890000000    -0.0847731  
C157     C      0.738800000000     0.704800000000     0.212910000000    -0.0876835  
C158     C      0.734630000000     0.752210000000     0.228750000000     0.0327835  
C159     C      0.750610000000     0.736660000000     0.208190000000     0.0395788  
C160     C      0.736810000000     0.797060000000     0.264250000000     0.0706393  
C161     C      0.687760000000     0.753300000000     0.248010000000     0.0702186  
C162     C      0.702130000000     0.737710000000     0.229960000000    -0.0841616  
C163     C      0.637070000000     0.906580000000     0.370050000000     0.100541   
C164     C      0.590940000000     0.866980000000     0.335830000000     0.0704697  
C165     C      0.620870000000     0.921500000000     0.384120000000    -0.0954493  
C166     C      0.586470000000     0.957100000000     0.391060000000    -0.0844596  
C167     C      0.574590000000     0.881610000000     0.349250000000    -0.0877194  
C168     C      0.572090000000     0.924670000000     0.389450000000     0.0328545  
C169     C      0.589420000000     0.909140000000     0.373830000000     0.0395892  
C170     C      0.570050000000     0.971270000000     0.406450000000     0.0706524  
C171     C      0.525210000000     0.922170000000     0.418030000000     0.0703158  
C172     C      0.541060000000     0.907230000000     0.403340000000    -0.0845202  
C173     C      0.031380000000     0.527200000000     0.623320000000     0.100259   
C174     C      0.979270000000     0.516470000000     0.616060000000     0.0703807  
C175     C      0.029130000000     0.528670000000     0.670190000000    -0.0951985  
C176     C      0.021020000000     0.542230000000     0.767900000000    -0.0860821  
C177     C      0.976640000000     0.517890000000     0.662370000000    -0.0878869  
C178     C      0.997560000000     0.520990000000     0.739550000000     0.034588   
C179     C      0.001350000000     0.523090000000     0.690070000000     0.0379837  
C180     C      0.017880000000     0.538130000000     0.814390000000     0.0701736  
C181     C      0.968550000000     0.493030000000     0.805350000000     0.0711507  
C182     C      0.970830000000     0.496570000000     0.758850000000    -0.0854423  
C183     C      0.965550000000     0.448620000000     0.118610000000     0.0998834  
C184     C      0.016270000000     0.492900000000     0.121280000000     0.0695999  
C185     C      0.965790000000     0.446270000000     0.165600000000    -0.0962611  
C186     C      0.965020000000     0.465210000000     0.262970000000    -0.0851494  
C187     C      0.017050000000     0.490590000000     0.167760000000    -0.0889233  
C188     C      0.990580000000     0.467240000000     0.240180000000     0.0336119  
C189     C      0.991350000000     0.467640000000     0.190490000000     0.0402593  
C190     C      0.965940000000     0.468400000000     0.309540000000     0.0713058  
C191     C      0.016030000000     0.473630000000     0.311780000000     0.0703867  
C192     C      0.016050000000     0.470940000000     0.265140000000    -0.0856949  
C193     C      0.914960000000     0.529110000000     0.993020000000     0.100932   
C194     C      0.963090000000     0.566350000000     0.025440000000     0.0704499  
C195     C      0.900670000000     0.544730000000     0.011860000000    -0.0956152  
C196     C      0.871890000000     0.570810000000     0.075080000000    -0.0844985  
C197     C      0.949280000000     0.582040000000     0.044580000000    -0.0877013  
C198     C      0.902430000000     0.587500000000     0.058950000000     0.0327746  
C199     C      0.917640000000     0.571150000000     0.038420000000     0.0394794  
C200     C      0.857550000000     0.586490000000     0.092730000000     0.0703813  
C201     C      0.903180000000     0.634860000000     0.080570000000     0.0702128  
C202     C      0.918120000000     0.619940000000     0.062280000000    -0.0843205  
C203     C      0.360010000000     0.159640000000     0.795910000000     0.101394   
C204     C      0.305950000000     0.123420000000     0.790190000000     0.0704612  
C205     C      0.357910000000     0.157070000000     0.842860000000    -0.0958894  
C206     C      0.349490000000     0.138300000000     0.941090000000    -0.0848839  
C207     C      0.303430000000     0.120440000000     0.836730000000    -0.0882894  
C208     C      0.326480000000     0.137760000000     0.913360000000     0.0329075  
C209     C      0.329340000000     0.138060000000     0.863700000000     0.0397091  
C210     C      0.347950000000     0.141210000000     0.987480000000     0.0703229  
C211     C      0.300750000000     0.141760000000     0.979940000000     0.0704266  
C212     C      0.301560000000     0.138830000000     0.933420000000    -0.0843645  
C213     C      0.296660000000     0.165660000000     0.481340000000     0.10136    
C214     C      0.350530000000     0.202640000000     0.486800000000     0.0701735  
C215     C      0.298390000000     0.168990000000     0.434450000000    -0.0960842  
C216     C      0.305450000000     0.188620000000     0.336690000000    -0.0847698  
C217     C      0.352640000000     0.206420000000     0.440330000000    -0.088092   
C218     C      0.329170000000     0.189920000000     0.363670000000     0.0326899  
C219     C      0.326650000000     0.188830000000     0.413450000000     0.0395345  
C220     C      0.306760000000     0.186270000000     0.290110000000     0.0702358  
C221     C      0.355120000000     0.187930000000     0.296010000000     0.0701452  
C222     C      0.354540000000     0.190280000000     0.342640000000    -0.0845161  
C223     C      0.402490000000     0.125450000000     0.606300000000     0.101345   
C224     C      0.354140000000     0.088640000000     0.573910000000     0.0705566  
C225     C      0.416600000000     0.109950000000     0.586700000000    -0.0961577  
C226     C      0.445340000000     0.085420000000     0.521580000000    -0.0847816  
C227     C      0.367810000000     0.073000000000     0.553970000000    -0.0876961  
C228     C      0.414880000000     0.068120000000     0.537820000000     0.0326201  
C229     C      0.399510000000     0.083910000000     0.559550000000     0.0396398  
C230     C      0.460200000000     0.070400000000     0.503560000000     0.0704766  
C231     C      0.415150000000     0.021450000000     0.515140000000     0.0698053  
C232     C      0.399680000000     0.035740000000     0.533840000000    -0.0839745  
C233     C      0.131880000000     0.399660000000     0.875740000000     0.101808   
C234     C      0.085450000000     0.359690000000     0.842660000000     0.0712008  
C235     C      0.115590000000     0.414070000000     0.891370000000    -0.0958208  
C236     C      0.082500000000     0.450050000000     0.902000000000    -0.0844616  
C237     C      0.069020000000     0.374090000000     0.857020000000    -0.0873099  
C238     C      0.067030000000     0.417660000000     0.897420000000     0.032798   
C239     C      0.084020000000     0.401730000000     0.881590000000     0.0397685  
C240     C      0.066710000000     0.464690000000     0.917880000000     0.0707961  
C241     C      0.020020000000     0.416400000000     0.923040000000     0.0696516  
C242     C      0.035350000000     0.400870000000     0.908430000000    -0.083478   
C243     C      0.302460000000     0.237100000000     0.706870000000     0.10027    
C244     C      0.255470000000     0.196840000000     0.675520000000     0.0701274  
C245     C      0.286430000000     0.251730000000     0.722790000000    -0.0956077  
C246     C      0.252230000000     0.287050000000     0.732750000000    -0.0847974  
C247     C      0.239230000000     0.211180000000     0.690830000000    -0.0877274  
C248     C      0.237760000000     0.254610000000     0.731840000000     0.0327598  
C249     C      0.254640000000     0.238980000000     0.714750000000     0.0393648  
C250     C      0.236510000000     0.301470000000     0.749730000000     0.0706229  
C251     C      0.192010000000     0.252610000000     0.764190000000     0.0698662  
C252     C      0.207240000000     0.237400000000     0.747930000000    -0.0844923  
C253     C      0.473020000000     0.448290000000     0.625710000000     0.0995479  
C254     C      0.470090000000     0.494540000000     0.628680000000     0.0693794  
C255     C      0.472080000000     0.446830000000     0.672870000000    -0.0960752  
C256     C      0.495420000000     0.466700000000     0.769360000000    -0.0846165  
C257     C      0.468480000000     0.493060000000     0.675390000000    -0.0880031  
C258     C      0.472030000000     0.469660000000     0.747720000000     0.0326745  
C259     C      0.470400000000     0.469580000000     0.698000000000     0.0394022  
C260     C      0.498630000000     0.469890000000     0.815950000000     0.0702456  
C261     C      0.454920000000     0.476920000000     0.820420000000     0.0699565  
C262     C      0.451370000000     0.474360000000     0.773830000000    -0.085081   
C263     C      0.498490000000     0.532070000000     0.129740000000     0.101561   
C264     C      0.536570000000     0.516620000000     0.123830000000     0.0704842  
C265     C      0.501300000000     0.532810000000     0.176700000000    -0.0958121  
C266     C      0.520300000000     0.543580000000     0.275230000000    -0.0845019  
C267     C      0.539730000000     0.517280000000     0.170370000000    -0.0882494  
C268     C      0.521660000000     0.521750000000     0.247090000000     0.0328501  
C269     C      0.521310000000     0.524490000000     0.197440000000     0.0396998  
C270     C      0.517530000000     0.538820000000     0.321630000000     0.070287   
C271     C      0.518460000000     0.491930000000     0.313150000000     0.0707918  
C272     C      0.521400000000     0.496050000000     0.266720000000    -0.0844052  
C273     C      0.847380000000     0.211220000000     0.984570000000     0.0995419  
C274     C      0.854260000000     0.167280000000     0.980490000000     0.0698395  
C275     C      0.848780000000     0.213390000000     0.937450000000    -0.095871   
C276     C      0.827470000000     0.194730000000     0.840310000000    -0.0847179  
C277     C      0.856220000000     0.169430000000     0.933900000000    -0.0880154  
C278     C      0.851140000000     0.192290000000     0.862020000000     0.0326945  
C279     C      0.852540000000     0.192040000000     0.911770000000     0.0393901  
C280     C      0.824310000000     0.191470000000     0.793730000000     0.0701419  
C281     C      0.868480000000     0.185190000000     0.789360000000     0.0698935  
C282     C      0.872110000000     0.188030000000     0.835920000000    -0.0850335  
C283     C      0.806670000000     0.116550000000     0.289860000000     0.0996027  
C284     C      0.798740000000     0.159850000000     0.293540000000     0.0699026  
C285     C      0.805290000000     0.114500000000     0.336980000000    -0.0958352  
C286     C      0.826820000000     0.134080000000     0.433790000000    -0.0847306  
C287     C      0.796770000000     0.157800000000     0.340150000000    -0.0879337  
C288     C      0.802620000000     0.135650000000     0.412210000000     0.0328153  
C289     C      0.801020000000     0.135600000000     0.362470000000     0.0394322  
C290     C      0.830140000000     0.137610000000     0.480310000000     0.0703193  
C291     C      0.785120000000     0.142420000000     0.484960000000     0.0700596  
C292     C      0.781330000000     0.139340000000     0.438420000000    -0.0850984  
C293     C      0.136760000000     0.355070000000     0.460450000000     0.0996781  
C294     C      0.134550000000     0.306200000000     0.462900000000     0.0693774  
C295     C      0.135540000000     0.355230000000     0.507590000000    -0.0961746  
C296     C      0.115520000000     0.306470000000     0.608120000000    -0.0851398  
C297     C      0.132660000000     0.305720000000     0.509580000000    -0.0879945  
C298     C      0.135750000000     0.332120000000     0.582160000000     0.0327     
C299     C      0.134140000000     0.330820000000     0.532460000000     0.0393825  
C300     C      0.119220000000     0.307280000000     0.654670000000     0.0698499  
C301     C      0.162190000000     0.358420000000     0.650430000000     0.0703687  
C302     C      0.158830000000     0.358560000000     0.603910000000    -0.0847233  
C303     C      0.194100000000     0.362300000000     0.148030000000     0.100799   
C304     C      0.176680000000     0.308470000000     0.155640000000     0.0697874  
C305     C      0.195570000000     0.359700000000     0.101250000000    -0.095638   
C306     C      0.160270000000     0.302260000000     0.011130000000    -0.0842961  
C307     C      0.178160000000     0.305490000000     0.109310000000    -0.088135   
C308     C      0.185480000000     0.327680000000     0.031700000000     0.0326744  
C309     C      0.186850000000     0.331040000000     0.081400000000     0.0394457  
C310     C      0.157430000000     0.301030000000     0.964440000000     0.0701062  
C311     C      0.204680000000     0.348690000000     0.957670000000     0.0702371  
C312     C      0.208230000000     0.350670000000     0.004280000000    -0.0846535  
C313     C      0.927120000000     0.243270000000     0.203820000000     0.100008   
C314     C      0.935380000000     0.203840000000     0.173150000000     0.070414   
C315     C      0.957760000000     0.258600000000     0.220270000000    -0.0952839  
C316     C      0.027690000000     0.294470000000     0.233060000000    -0.0838161  
C317     C      0.965840000000     0.218850000000     0.188910000000    -0.087985   
C318     C      0.009570000000     0.262030000000     0.231670000000     0.0319289  
C319     C      0.977380000000     0.246390000000     0.213210000000     0.0402268  
C320     C      0.057870000000     0.308660000000     0.250260000000     0.0701746  
C321     C      0.052900000000     0.259540000000     0.264690000000     0.0699143  
C322     C      0.022540000000     0.244620000000     0.248180000000    -0.0842845  
C323     C      0.393750000000     0.467910000000     0.405720000000     0.101425   
C324     C      0.386220000000     0.420190000000     0.435260000000     0.0710943  
C325     C      0.363100000000     0.452640000000     0.389710000000    -0.095531   
C326     C      0.294180000000     0.420970000000     0.376820000000    -0.0842203  
C327     C      0.355420000000     0.404750000000     0.420520000000    -0.0869623  
C328     C      0.310590000000     0.404880000000     0.380630000000     0.0328737  
C329     C      0.343360000000     0.420890000000     0.397390000000     0.0396046  
C330     C      0.264040000000     0.406180000000     0.359670000000     0.0708624  
C331     C      0.264820000000     0.359210000000     0.351880000000     0.0703358  
C332     C      0.295400000000     0.373560000000     0.367680000000    -0.0837654  
C333     C      0.493950000000     0.964410000000     0.617460000000     0.100951   
C334     C      0.532660000000     0.017610000000     0.611080000000     0.0697376  
C335     C      0.497670000000     0.966360000000     0.664310000000    -0.0959051  
C336     C      0.518200000000     0.973420000000     0.761770000000    -0.0849662  
C337     C      0.536830000000     0.019930000000     0.657460000000    -0.0886151  
C338     C      0.520330000000     0.997360000000     0.734530000000     0.0329955  
C339     C      0.518640000000     0.994420000000     0.684800000000     0.0396585  
C340     C      0.516480000000     0.975290000000     0.808380000000     0.0704368  
C341     C      0.520420000000     0.024600000000     0.801940000000     0.0702456  
C342     C      0.522200000000     0.023490000000     0.755290000000    -0.0849526  
C343     C      0.490840000000     0.028800000000     0.302270000000     0.101399   
C344     C      0.453250000000     0.975140000000     0.307250000000     0.0702264  
C345     C      0.488090000000     0.027170000000     0.255310000000    -0.0964669  
C346     C      0.470150000000     0.020630000000     0.156950000000    -0.0850622  
C347     C      0.450000000000     0.973140000000     0.260690000000    -0.0883788  
C348     C      0.467760000000     0.996590000000     0.184240000000     0.0328632  
C349     C      0.468210000000     0.999060000000     0.234030000000     0.0398501  
C350     C      0.473160000000     0.019340000000     0.110500000000     0.0698455  
C351     C      0.469960000000     0.970360000000     0.117050000000     0.0702311  
C352     C      0.466980000000     0.970940000000     0.163570000000    -0.0845654  
C353     C      0.726940000000     0.084550000000     0.068790000000     0.0998148  
C354     C      0.718400000000     0.123810000000     0.099440000000     0.0702848  
C355     C      0.696690000000     0.069680000000     0.050930000000    -0.0949866  
C356     C      0.627160000000     0.034560000000     0.034370000000    -0.0840724  
C357     C      0.688300000000     0.109220000000     0.082330000000    -0.0875657  
C358     C      0.645390000000     0.066940000000     0.037160000000     0.0327225  
C359     C      0.677130000000     0.082050000000     0.057220000000     0.0393603  
C360     C      0.597360000000     0.020880000000     0.015900000000     0.0697184  
C361     C      0.602940000000     0.070390000000     0.002820000000     0.0701212  
C362     C      0.632960000000     0.084820000000     0.020570000000    -0.0843997  
C363     C      0.207520000000     0.857590000000     0.459730000000     0.100332   
C364     C      0.158400000000     0.855000000000     0.461350000000     0.0696728  
C365     C      0.208540000000     0.858770000000     0.506840000000    -0.096791   
C366     C      0.189440000000     0.834800000000     0.602990000000    -0.0850246  
C367     C      0.159380000000     0.856830000000     0.508020000000    -0.0883847  
C368     C      0.183820000000     0.856330000000     0.580890000000     0.0327109  
C369     C      0.184120000000     0.857730000000     0.531250000000     0.0396659  
C370     C      0.186520000000     0.831840000000     0.649570000000     0.0703282  
C371     C      0.174240000000     0.872130000000     0.653050000000     0.0701293  
C372     C      0.176480000000     0.875350000000     0.606440000000    -0.085353   
C373     C      0.170910000000     0.838700000000     0.966040000000     0.0998259  
C374     C      0.121090000000     0.793840000000     0.957080000000     0.0740297  
C375     C      0.169240000000     0.834000000000     0.012310000000    -0.0962107  
C376     C      0.166700000000     0.804460000000     0.102320000000    -0.0859137  
C377     C      0.118530000000     0.788920000000     0.003540000000    -0.0885768  
C378     C      0.141910000000     0.804740000000     0.080600000000     0.0328912  
C379     C      0.142930000000     0.809150000000     0.031470000000     0.0400839  
C380     C      0.168660000000     0.806050000000     0.148960000000     0.0706487  
C381     C      0.121220000000     0.806460000000     0.153250000000     0.069917   
C382     C      0.118380000000     0.804560000000     0.106470000000    -0.0849455  
C383     C      0.258470000000     0.871650000000     0.881770000000     0.100276   
C384     C      0.272020000000     0.907480000000     0.821550000000     0.0742149  
C385     C      0.289250000000     0.886870000000     0.896580000000    -0.0962915  
C386     C      0.358220000000     0.910390000000     0.901680000000    -0.0850947  
C387     C      0.303010000000     0.923230000000     0.835650000000    -0.0880743  
C388     C      0.344800000000     0.928050000000     0.888370000000     0.0329214  
C389     C      0.312010000000     0.912480000000     0.873020000000     0.0400208  
C390     C      0.388810000000     0.925050000000     0.917070000000     0.0704006  
C391     C      0.393250000000     0.974360000000     0.906830000000     0.0701064  
C392     C      0.362720000000     0.960410000000     0.890890000000    -0.0845803  
C393     C      0.795010000000     0.632320000000     0.792030000000     0.101469   
C394     C      0.810330000000     0.685780000000     0.786440000000     0.0702888  
C395     C      0.793470000000     0.634030000000     0.838910000000    -0.0962046  
C396     C      0.780670000000     0.640930000000     0.936650000000    -0.0848501  
C397     C      0.808790000000     0.687900000000     0.832930000000    -0.0883728  
C398     C      0.802820000000     0.664700000000     0.909550000000     0.0327156  
C399     C      0.801180000000     0.662110000000     0.859820000000     0.0396422  
C400     C      0.784610000000     0.642260000000     0.983180000000     0.070178   
C401     C      0.831120000000     0.690680000000     0.976920000000     0.0703433  
C402     C      0.827860000000     0.690120000000     0.930350000000    -0.0845477  
C403     C      0.830380000000     0.632980000000     0.292970000000     0.101221   
C404     C      0.867500000000     0.686690000000     0.286280000000     0.0701579  
C405     C      0.833930000000     0.635230000000     0.339820000000    -0.0960397  
C406     C      0.854980000000     0.643530000000     0.437090000000    -0.0848859  
C407     C      0.871400000000     0.689360000000     0.332730000000    -0.0882757  
C408     C      0.855420000000     0.666680000000     0.409850000000     0.032709   
C409     C      0.853950000000     0.663680000000     0.360160000000     0.0395273  
C410     C      0.852850000000     0.645100000000     0.483660000000     0.0702227  
C411     C      0.853010000000     0.692660000000     0.477180000000     0.0702357  
C412     C      0.855220000000     0.691850000000     0.430540000000    -0.0844629  
C413     C      0.604980000000     0.524860000000     0.501420000000     0.100668   
C414     C      0.595420000000     0.563140000000     0.533270000000     0.0707529  
C415     C      0.635410000000     0.540700000000     0.518600000000    -0.0954332  
C416     C      0.692930000000     0.569020000000     0.577290000000    -0.0843232  
C417     C      0.625350000000     0.578950000000     0.550870000000    -0.0879049  
C418     C      0.678130000000     0.584960000000     0.561800000000     0.0328053  
C419     C      0.645840000000     0.567880000000     0.543760000000     0.0396055  
C420     C      0.723400000000     0.585490000000     0.593330000000     0.0702992  
C421     C      0.724820000000     0.633170000000     0.580370000000     0.0705071  
C422     C      0.694560000000     0.617470000000     0.563590000000    -0.0843458  
C423     C      0.938190000000     0.743500000000     0.670800000000     0.100985   
C424     C      0.929470000000     0.695000000000     0.698770000000     0.0703894  
C425     C      0.967780000000     0.758320000000     0.690780000000    -0.0960978  
C426     C      0.022500000000     0.786760000000     0.754790000000    -0.084197   
C427     C      0.958650000000     0.709320000000     0.718990000000    -0.0880255  
C428     C      0.009720000000     0.756950000000     0.736230000000     0.0316784  
C429     C      0.978190000000     0.741360000000     0.715490000000     0.0401822  
C430     C      0.052690000000     0.801560000000     0.772080000000     0.0693714  
C431     C      0.057580000000     0.757720000000     0.754820000000     0.0698994  
C432     C      0.027630000000     0.742390000000     0.736900000000    -0.0842406  
Cu1      Cu     0.828770000000     0.689040000000     0.631310000000     0.847357   
Cu2      Cu     0.829010000000     0.639850000000     0.638200000000     0.849026   
Cu3      Cu     0.159780000000     0.858380000000     0.809880000000     0.8439     
Cu4      Cu     0.161790000000     0.810040000000     0.803680000000     0.849772   
Cu5      Cu     0.497930000000     0.023490000000     0.956160000000     0.84569    
Cu6      Cu     0.493700000000     0.972120000000     0.963180000000     0.848226   
Cu7      Cu     0.161810000000     0.358840000000     0.302480000000     0.852068   
Cu8      Cu     0.158200000000     0.307910000000     0.310200000000     0.842346   
Cu9      Cu     0.822720000000     0.185880000000     0.142260000000     0.84824    
Cu10     Cu     0.830820000000     0.141500000000     0.131920000000     0.848187   
Cu11     Cu     0.494300000000     0.517440000000     0.476190000000     0.849803   
Cu12     Cu     0.494370000000     0.468370000000     0.466660000000     0.846836   
Cu13     Cu     0.136910000000     0.303180000000     0.809840000000     0.842442   
Cu14     Cu     0.185420000000     0.353420000000     0.803350000000     0.853239   
Cu15     Cu     0.303230000000     0.138730000000     0.635440000000     0.843939   
Cu16     Cu     0.354120000000     0.186260000000     0.641410000000     0.856288   
Cu17     Cu     0.965720000000     0.469600000000     0.959440000000     0.851132   
Cu18     Cu     0.015980000000     0.517450000000     0.969570000000     0.847396   
Cu19     Cu     0.637700000000     0.807660000000     0.299390000000     0.845911   
Cu20     Cu     0.688990000000     0.853970000000     0.310000000000     0.852474   
Cu21     Cu     0.803630000000     0.637940000000     0.138040000000     0.848      
Cu22     Cu     0.852130000000     0.688020000000     0.130980000000     0.848704   
Cu23     Cu     0.468370000000     0.970890000000     0.462190000000     0.846382   
Cu24     Cu     0.516250000000     0.021640000000     0.456890000000     0.850295   
Cu25     Cu     0.352400000000     0.165070000000     0.141670000000     0.848796   
Cu26     Cu     0.302570000000     0.164220000000     0.134770000000     0.846164   
Cu27     Cu     0.521320000000     0.498020000000     0.969190000000     0.849408   
Cu28     Cu     0.472400000000     0.499010000000     0.975280000000     0.846096   
Cu29     Cu     0.188390000000     0.830870000000     0.302290000000     0.854083   
Cu30     Cu     0.139340000000     0.831630000000     0.308090000000     0.842689   
Cu31     Cu     0.023650000000     0.496170000000     0.466850000000     0.853024   
Cu32     Cu     0.974070000000     0.495990000000     0.462760000000     0.847739   
Cu33     Cu     0.851240000000     0.163210000000     0.634210000000     0.847818   
Cu34     Cu     0.802890000000     0.165420000000     0.639900000000     0.845561   
Cu35     Cu     0.686400000000     0.832230000000     0.808390000000     0.85027    
Cu36     Cu     0.636350000000     0.830860000000     0.801220000000     0.847925   
H1       H      0.819630000000     0.067280000000     0.666010000000     0.0268307  
H2       H      0.665170000000     0.917950000000     0.739380000000     0.0273779  
H3       H      0.712540000000     0.022420000000     0.722900000000     0.0513741  
H4       H      0.689650000000     0.969070000000     0.707540000000     0.0525037  
H5       H      0.793870000000     0.015020000000     0.695420000000     0.0513865  
H6       H      0.777040000000     0.988400000000     0.764120000000     0.0566506  
H7       H      0.738540000000     0.074150000000     0.691420000000     0.0272051  
H8       H      0.918550000000     0.259100000000     0.603970000000     0.0269845  
H9       H      0.916110000000     0.411210000000     0.532660000000     0.0259128  
H10      H      0.858330000000     0.308220000000     0.555610000000     0.050694   
H11      H      0.889230000000     0.360530000000     0.565940000000     0.0514949  
H12      H      0.946060000000     0.311510000000     0.575430000000     0.0518317  
H13      H      0.956980000000     0.340030000000     0.510920000000     0.0568444  
H14      H      0.831900000000     0.256720000000     0.587310000000     0.0266428  
H15      H      0.162040000000     0.740590000000     0.355620000000     0.0272084  
H16      H      0.009750000000     0.594540000000     0.447470000000     0.0261784  
H17      H      0.047710000000     0.681800000000     0.364390000000     0.0511524  
H18      H      0.035140000000     0.647820000000     0.423530000000     0.0521022  
H19      H      0.136910000000     0.688240000000     0.383860000000     0.0515615  
H20      H      0.108230000000     0.637460000000     0.363880000000     0.0562384  
H21      H      0.073930000000     0.735150000000     0.339350000000     0.0268063  
H22      H      0.502270000000     0.594560000000     0.940700000000     0.0272197  
H23      H      0.657070000000     0.744900000000     0.870530000000     0.0273257  
H24      H      0.609770000000     0.640560000000     0.885020000000     0.0515462  
H25      H      0.632300000000     0.693590000000     0.901740000000     0.0525204  
H26      H      0.527840000000     0.647040000000     0.911810000000     0.0515368  
H27      H      0.545380000000     0.674620000000     0.843820000000     0.0564921  
H28      H      0.584010000000     0.588740000000     0.915900000000     0.0274908  
H29      H      0.168760000000     0.927120000000     0.274720000000     0.0269552  
H30      H      0.323030000000     0.078360000000     0.205280000000     0.0273525  
H31      H      0.276500000000     0.974210000000     0.219720000000     0.051555   
H32      H      0.298530000000     0.027090000000     0.236400000000     0.0522653  
H33      H      0.193950000000     0.979640000000     0.246160000000     0.0516281  
H34      H      0.211410000000     0.007710000000     0.178770000000     0.0564545  
H35      H      0.251090000000     0.922300000000     0.250360000000     0.0273912  
H36      H      0.416690000000     0.256110000000     0.090730000000     0.0268506  
H37      H      0.409080000000     0.399920000000     0.992040000000     0.0263841  
H38      H      0.360390000000     0.313990000000     0.078540000000     0.0513923  
H39      H      0.381470000000     0.347130000000     0.018380000000     0.0523025  
H40      H      0.443610000000     0.308120000000     0.061230000000     0.0513159  
H41      H      0.465390000000     0.359200000000     0.078840000000     0.0562601  
H42      H      0.333570000000     0.260940000000     0.104940000000     0.0270872  
H43      H      0.612970000000     0.805060000000     0.662120000000     0.0273953  
H44      H      0.708480000000     0.847700000000     0.446560000000     0.0285581  
H45      H      0.705020000000     0.809790000000     0.591510000000     0.0517736  
H46      H      0.707430000000     0.844210000000     0.526800000000     0.0532646  
H47      H      0.613780000000     0.799380000000     0.581400000000     0.0527929  
H48      H      0.616500000000     0.763910000000     0.521860000000     0.0570075  
H49      H      0.703520000000     0.815190000000     0.672310000000     0.0273561  
H50      H      0.710660000000     0.858810000000     0.946380000000     0.0275127  
H51      H      0.617320000000     0.814590000000     0.163650000000     0.0281354  
H52      H      0.618820000000     0.852890000000     0.019470000000     0.0516767  
H53      H      0.617290000000     0.818830000000     0.083610000000     0.0529925  
H54      H      0.710600000000     0.864390000000     0.027050000000     0.0527783  
H55      H      0.708450000000     0.898870000000     0.087560000000     0.0571634  
H56      H      0.619560000000     0.847500000000     0.938460000000     0.0272101  
H57      H      0.751210000000     0.820280000000     0.277450000000     0.0274434  
H58      H      0.744670000000     0.666210000000     0.200180000000     0.0279809  
H59      H      0.687790000000     0.714740000000     0.216060000000     0.0517076  
H60      H      0.717830000000     0.690620000000     0.231980000000     0.0526822  
H61      H      0.777020000000     0.793940000000     0.247780000000     0.0517811  
H62      H      0.786550000000     0.778250000000     0.177360000000     0.0567215  
H63      H      0.662590000000     0.741410000000     0.247610000000     0.0273941  
H64      H      0.582130000000     0.996420000000     0.406960000000     0.0277288  
H65      H      0.578130000000     0.845840000000     0.316450000000     0.0272737  
H66      H      0.529090000000     0.882120000000     0.403530000000     0.0513045  
H67      H      0.550390000000     0.871390000000     0.339810000000     0.0520124  
H68      H      0.610220000000     0.971620000000     0.379970000000     0.0522095  
H69      H      0.632560000000     0.942360000000     0.404420000000     0.0568826  
H70      H      0.501270000000     0.907710000000     0.428470000000     0.0271074  
H71      H      0.036850000000     0.554760000000     0.835110000000     0.0270076  
H72      H      0.958800000000     0.511360000000     0.596640000000     0.0274188  
H73      H      0.952200000000     0.479540000000     0.738120000000     0.0523436  
H74      H      0.954980000000     0.514270000000     0.676450000000     0.0521287  
H75      H      0.041850000000     0.561710000000     0.754270000000     0.0519083  
H76      H      0.048790000000     0.533410000000     0.691390000000     0.057035   
H77      H      0.947780000000     0.473310000000     0.818740000000     0.0274882  
H78      H      0.946010000000     0.467570000000     0.325720000000     0.0273238  
H79      H      0.036790000000     0.511770000000     0.105880000000     0.0280941  
H80      H      0.036090000000     0.472240000000     0.248660000000     0.052245   
H81      H      0.037340000000     0.507590000000     0.185950000000     0.0533186  
H82      H      0.944930000000     0.462480000000     0.244780000000     0.0529715  
H83      H      0.945980000000     0.427850000000     0.183110000000     0.057312   
H84      H      0.036490000000     0.477110000000     0.329770000000     0.0280423  
H85      H      0.833800000000     0.572600000000     0.104340000000     0.0273787  
H86      H      0.987560000000     0.575590000000     0.032490000000     0.0276227  
H87      H      0.941610000000     0.633910000000     0.049880000000     0.0512634  
H88      H      0.963380000000     0.602280000000     0.065060000000     0.0523077  
H89      H      0.859040000000     0.545700000000     0.074240000000     0.0518674  
H90      H      0.876380000000     0.536730000000     0.004950000000     0.0566652  
H91      H      0.916100000000     0.659990000000     0.081840000000     0.0271574  
H92      H      0.366600000000     0.142160000000     0.007560000000     0.0271477  
H93      H      0.284720000000     0.109970000000     0.771180000000     0.0276414  
H94      H      0.283340000000     0.138650000000     0.913240000000     0.0520899  
H95      H      0.281040000000     0.104790000000     0.851530000000     0.0525662  
H96      H      0.368850000000     0.136910000000     0.927030000000     0.0514834  
H97      H      0.378470000000     0.170410000000     0.863320000000     0.0570843  
H98      H      0.281450000000     0.143330000000     0.993910000000     0.0274797  
H99      H      0.287570000000     0.184630000000     0.270630000000     0.0271606  
H100     H      0.371810000000     0.216170000000     0.505640000000     0.0282986  
H101     H      0.373320000000     0.191070000000     0.362130000000     0.0518352  
H102     H      0.374810000000     0.222680000000     0.425500000000     0.0524982  
H103     H      0.285710000000     0.188930000000     0.351470000000     0.0513692  
H104     H      0.277770000000     0.155560000000     0.414140000000     0.0568807  
H105     H      0.374820000000     0.187450000000     0.281340000000     0.0270721  
H106     H      0.483890000000     0.084780000000     0.491990000000     0.0270962  
H107     H      0.329660000000     0.079660000000     0.567260000000     0.0274573  
H108     H      0.376230000000     0.021350000000     0.546190000000     0.0514925  
H109     H      0.353610000000     0.052920000000     0.533280000000     0.0525443  
H110     H      0.457790000000     0.110530000000     0.522790000000     0.0516721  
H111     H      0.440880000000     0.117770000000     0.593450000000     0.056608   
H112     H      0.402680000000     0.996330000000     0.513450000000     0.027965   
H113     H      0.079740000000     0.489770000000     0.920720000000     0.0269022  
H114     H      0.072790000000     0.338550000000     0.823230000000     0.0259179  
H115     H      0.022370000000     0.375810000000     0.906410000000     0.0513272  
H116     H      0.044750000000     0.363710000000     0.848040000000     0.0522095  
H117     H      0.106680000000     0.464330000000     0.892830000000     0.0514313  
H118     H      0.127430000000     0.434550000000     0.912360000000     0.0564157  
H119     H      0.995540000000     0.402520000000     0.931060000000     0.0281584  
H120     H      0.248700000000     0.326620000000     0.749580000000     0.0274525  
H121     H      0.242290000000     0.175510000000     0.656660000000     0.0271659  
H122     H      0.195230000000     0.212290000000     0.748620000000     0.0508683  
H123     H      0.214710000000     0.200620000000     0.683270000000     0.051876   
H124     H      0.275550000000     0.301400000000     0.719910000000     0.0520305  
H125     H      0.298590000000     0.272700000000     0.742760000000     0.0567906  
H126     H      0.168430000000     0.238400000000     0.776300000000     0.0265464  
H127     H      0.517590000000     0.468310000000     0.831230000000     0.0274331  
H128     H      0.469380000000     0.513930000000     0.613320000000     0.0283105  
H129     H      0.432760000000     0.476400000000     0.758290000000     0.0518204  
H130     H      0.466970000000     0.511050000000     0.693760000000     0.0530883  
H131     H      0.511910000000     0.463120000000     0.750250000000     0.0528839  
H132     H      0.472620000000     0.427930000000     0.690300000000     0.0573338  
H133     H      0.438710000000     0.481090000000     0.839250000000     0.027119   
H134     H      0.515910000000     0.555970000000     0.342070000000     0.0277097  
H135     H      0.550660000000     0.509670000000     0.104750000000     0.0279486  
H136     H      0.522200000000     0.478490000000     0.246220000000     0.0523967  
H137     H      0.556100000000     0.511470000000     0.185100000000     0.0526564  
H138     H      0.520940000000     0.564050000000     0.261470000000     0.0516722  
H139     H      0.487320000000     0.539180000000     0.197260000000     0.0572916  
H140     H      0.517550000000     0.471260000000     0.326700000000     0.0278881  
H141     H      0.805140000000     0.192660000000     0.778440000000     0.0270909  
H142     H      0.856380000000     0.148520000000     0.995330000000     0.0285074  
H143     H      0.890980000000     0.186430000000     0.851430000000     0.051437   
H144     H      0.859310000000     0.152490000000     0.915210000000     0.0529586  
H145     H      0.810690000000     0.197890000000     0.859320000000     0.052519   
H146     H      0.846970000000     0.231760000000     0.920520000000     0.0567552  
H147     H      0.884910000000     0.181330000000     0.770560000000     0.0269164  
H148     H      0.849690000000     0.137070000000     0.495470000000     0.0271405  
H149     H      0.796160000000     0.178290000000     0.278530000000     0.0285756  
H150     H      0.762090000000     0.140290000000     0.423000000000     0.0515939  
H151     H      0.793250000000     0.174520000000     0.358690000000     0.0530373  
H152     H      0.843870000000     0.131410000000     0.414690000000     0.0526596  
H153     H      0.807560000000     0.096450000000     0.354080000000     0.0569596  
H154     H      0.768410000000     0.145800000000     0.503860000000     0.0268422  
H155     H      0.103360000000     0.286700000000     0.673420000000     0.0267549  
H156     H      0.134270000000     0.286370000000     0.447350000000     0.0280274  
H157     H      0.175000000000     0.378840000000     0.584920000000     0.0528697  
H158     H      0.131380000000     0.286230000000     0.527730000000     0.0528313  
H159     H      0.097160000000     0.285720000000     0.592490000000     0.0514535  
H160     H      0.135630000000     0.374390000000     0.525210000000     0.0572177  
H161     H      0.180910000000     0.379070000000     0.665770000000     0.0274902  
H162     H      0.137040000000     0.281390000000     0.950100000000     0.0271374  
H163     H      0.168760000000     0.287490000000     0.175270000000     0.0274452  
H164     H      0.228450000000     0.370390000000     0.018730000000     0.0516239  
H165     H      0.171960000000     0.283010000000     0.095400000000     0.0519634  
H166     H      0.142050000000     0.284000000000     0.030980000000     0.0516888  
H167     H      0.202920000000     0.379960000000     0.080100000000     0.0571282  
H168     H      0.222460000000     0.367410000000     0.937840000000     0.0274577  
H169     H      0.071080000000     0.333800000000     0.250270000000     0.0281495  
H170     H      0.928020000000     0.182610000000     0.154390000000     0.0276969  
H171     H      0.009290000000     0.219520000000     0.248760000000     0.0509184  
H172     H      0.980320000000     0.208830000000     0.181660000000     0.0523153  
H173     H      0.018890000000     0.308960000000     0.220200000000     0.051952   
H174     H      0.966090000000     0.279660000000     0.239880000000     0.057116   
H175     H      0.061950000000     0.245080000000     0.276860000000     0.0266531  
H176     H      0.252420000000     0.419670000000     0.357410000000     0.0276201  
H177     H      0.394260000000     0.406600000000     0.453370000000     0.0267308  
H178     H      0.307050000000     0.360130000000     0.369010000000     0.0513515  
H179     H      0.341140000000     0.380290000000     0.427970000000     0.0523269  
H180     H      0.304270000000     0.444870000000     0.387470000000     0.0515318  
H181     H      0.354940000000     0.465450000000     0.369920000000     0.0564622  
H182     H      0.254010000000     0.334990000000     0.342330000000     0.0269152  
H183     H      0.514100000000     0.955900000000     0.828090000000     0.0269322  
H184     H      0.546840000000     0.038590000000     0.591940000000     0.0275927  
H185     H      0.523700000000     0.042500000000     0.735600000000     0.0517139  
H186     H      0.553950000000     0.041890000000     0.671860000000     0.0520505  
H187     H      0.517360000000     0.953080000000     0.747190000000     0.051422   
H188     H      0.483700000000     0.946120000000     0.685020000000     0.0569554  
H189     H      0.521060000000     0.044900000000     0.816400000000     0.0270344  
H190     H      0.475640000000     0.038770000000     0.090790000000     0.0268669  
H191     H      0.439280000000     0.953900000000     0.325940000000     0.0274632  
H192     H      0.465380000000     0.951900000000     0.183280000000     0.0516443  
H193     H      0.433660000000     0.951100000000     0.245660000000     0.0520642  
H194     H      0.470170000000     0.040610000000     0.171380000000     0.0511852  
H195     H      0.502000000000     0.047740000000     0.235190000000     0.0568779  
H196     H      0.470070000000     0.950390000000     0.102700000000     0.0270384  
H197     H      0.584010000000     0.995760000000     0.014940000000     0.02761    
H198     H      0.725520000000     0.144810000000     0.118670000000     0.027779   
H199     H      0.646350000000     0.109920000000     0.020970000000     0.0512638  
H200     H      0.673800000000     0.119300000000     0.089130000000     0.0521858  
H201     H      0.635520000000     0.019690000000     0.047190000000     0.0517799  
H202     H      0.688650000000     0.048870000000     0.030810000000     0.0566273  
H203     H      0.594260000000     0.085200000000     0.990760000000     0.0267831  
H204     H      0.190380000000     0.814400000000     0.665280000000     0.0272152  
H205     H      0.137980000000     0.853280000000     0.445440000000     0.0280335  
H206     H      0.172280000000     0.892480000000     0.590470000000     0.0517921  
H207     H      0.140110000000     0.856240000000     0.525880000000     0.0531007  
H208     H      0.195040000000     0.819580000000     0.584250000000     0.0528114  
H209     H      0.228430000000     0.860630000000     0.524790000000     0.057088   
H210     H      0.168110000000     0.887070000000     0.671530000000     0.0272421  
H211     H      0.188810000000     0.806790000000     0.164270000000     0.0271024  
H212     H      0.102120000000     0.777710000000     0.935840000000     0.0197694  
H213     H      0.098860000000     0.804750000000     0.090630000000     0.0524219  
H214     H      0.098000000000     0.769230000000     0.017390000000     0.0530955  
H215     H      0.185130000000     0.804230000000     0.083230000000     0.0527844  
H216     H      0.188670000000     0.849530000000     0.033340000000     0.0581467  
H217     H      0.103220000000     0.807630000000     0.172180000000     0.0268906  
H218     H      0.398210000000     0.910400000000     0.926850000000     0.026979   
H219     H      0.265740000000     0.915870000000     0.791980000000     0.021928   
H220     H      0.353080000000     0.974880000000     0.881370000000     0.0523074  
H221     H      0.319870000000     0.943250000000     0.816900000000     0.0533971  
H222     H      0.345230000000     0.885290000000     0.899870000000     0.0523607  
H223     H      0.295190000000     0.879420000000     0.927380000000     0.0568641  
H224     H      0.406280000000     0.999480000000     0.908420000000     0.0273197  
H225     H      0.767270000000     0.623030000000     0.002780000000     0.0271899  
H226     H      0.817480000000     0.706910000000     0.767520000000     0.0277143  
H227     H      0.845630000000     0.708940000000     0.910700000000     0.0519766  
H228     H      0.814180000000     0.709900000000     0.847770000000     0.0524455  
H229     H      0.760630000000     0.621130000000     0.921990000000     0.0514809  
H230     H      0.786880000000     0.613570000000     0.859280000000     0.0570637  
H231     H      0.851330000000     0.710420000000     0.991430000000     0.0274751  
H232     H      0.851830000000     0.626290000000     0.503360000000     0.0270916  
H233     H      0.880990000000     0.707740000000     0.266950000000     0.0277391  
H234     H      0.855420000000     0.710220000000     0.410770000000     0.0519831  
H235     H      0.887700000000     0.711670000000     0.347090000000     0.0523706  
H236     H      0.855740000000     0.623980000000     0.422520000000     0.0514988  
H237     H      0.820590000000     0.614890000000     0.360650000000     0.0570834  
H238     H      0.851980000000     0.712120000000     0.491630000000     0.0274654  
H239     H      0.733940000000     0.572180000000     0.604780000000     0.0273333  
H240     H      0.580590000000     0.572770000000     0.540720000000     0.0276949  
H241     H      0.684400000000     0.630910000000     0.551360000000     0.0516623  
H242     H      0.632110000000     0.599600000000     0.570670000000     0.0525667  
H243     H      0.681040000000     0.543910000000     0.577460000000     0.0516486  
H244     H      0.651340000000     0.532320000000     0.511320000000     0.0565024  
H245     H      0.736630000000     0.658300000000     0.580750000000     0.02736    
H246     H      0.061780000000     0.824760000000     0.785510000000     0.0267688  
H247     H      0.915210000000     0.670150000000     0.703620000000     0.0278796  
H248     H      0.019000000000     0.719550000000     0.722540000000     0.0513183  
H249     H      0.965530000000     0.695190000000     0.738030000000     0.052596   
H250     H      0.009320000000     0.798700000000     0.755960000000     0.0510385  
H251     H      0.983150000000     0.783050000000     0.686020000000     0.0566276  
H252     H      0.070670000000     0.745650000000     0.753860000000     0.0276822  
N1       N      0.706660000000     0.922220000000     0.768940000000    -0.194445   
N2       N      0.781140000000     0.074740000000     0.676860000000    -0.192285   
N3       N      0.953210000000     0.406280000000     0.504450000000    -0.194798   
N4       N      0.873190000000     0.253920000000     0.597460000000    -0.192401   
N5       N      0.044610000000     0.585110000000     0.421970000000    -0.194726   
N6       N      0.119890000000     0.741780000000     0.345370000000    -0.192638   
N7       N      0.615850000000     0.740790000000     0.840300000000    -0.19436    
N8       N      0.541130000000     0.587660000000     0.930270000000    -0.192191   
N9       N      0.281720000000     0.074090000000     0.175030000000    -0.194037   
N10      N      0.207940000000     0.920700000000     0.264480000000    -0.192085   
N11      N      0.453560000000     0.410070000000     0.017670000000    -0.194741   
N12      N      0.373110000000     0.254580000000     0.099920000000    -0.192187   
N13      N      0.662540000000     0.808640000000     0.435940000000    -0.193367   
N14      N      0.658390000000     0.811090000000     0.673140000000    -0.192423   
N15      N      0.663500000000     0.853410000000     0.173730000000    -0.193245   
N16      N      0.664890000000     0.852150000000     0.936500000000    -0.192404   
N17      N      0.782190000000     0.707840000000     0.171560000000    -0.194241   
N18      N      0.704980000000     0.782980000000     0.264310000000    -0.192225   
N19      N      0.621970000000     0.879120000000     0.345530000000    -0.19382    
N20      N      0.539590000000     0.953960000000     0.419660000000    -0.192502   
N21      N      0.005700000000     0.519500000000     0.596270000000    -0.194156   
N22      N      0.992230000000     0.513200000000     0.832900000000    -0.192396   
N23      N      0.990570000000     0.472940000000     0.096360000000    -0.193274   
N24      N      0.991560000000     0.473350000000     0.333670000000    -0.192361   
N25      N      0.946240000000     0.539580000000     0.000890000000    -0.193995   
N26      N      0.872930000000     0.618310000000     0.095000000000    -0.192222   
N27      N      0.333480000000     0.144000000000     0.769600000000    -0.19425    
N28      N      0.324200000000     0.143770000000     0.006680000000    -0.192261   
N29      N      0.323310000000     0.181390000000     0.507450000000    -0.194111   
N30      N      0.330990000000     0.185060000000     0.270010000000    -0.192238   
N31      N      0.371280000000     0.115280000000     0.598540000000    -0.194675   
N32      N      0.445400000000     0.038630000000     0.500920000000    -0.19218    
N33      N      0.116720000000     0.372540000000     0.850710000000    -0.195157   
N34      N      0.035640000000     0.448070000000     0.927940000000    -0.192386   
N35      N      0.286870000000     0.209540000000     0.682710000000    -0.194035   
N36      N      0.206550000000     0.284430000000     0.765150000000    -0.192496   
N37      N      0.473510000000     0.473210000000     0.603450000000    -0.192962   
N38      N      0.478940000000     0.475630000000     0.841220000000    -0.192042   
N39      N      0.515040000000     0.522270000000     0.103350000000    -0.194122   
N40      N      0.515770000000     0.512740000000     0.340340000000    -0.191964   
N41      N      0.848600000000     0.186980000000     0.006160000000    -0.192995   
N42      N      0.844220000000     0.186000000000     0.768530000000    -0.192098   
N43      N      0.804940000000     0.140450000000     0.268050000000    -0.193023   
N44      N      0.809850000000     0.142450000000     0.505620000000    -0.19214    
N45      N      0.137870000000     0.331050000000     0.437990000000    -0.193091   
N46      N      0.142950000000     0.332730000000     0.675550000000    -0.192152   
N47      N      0.183090000000     0.336140000000     0.175190000000    -0.193728   
N48      N      0.178970000000     0.324550000000     0.937950000000    -0.19207    
N49      N      0.915760000000     0.215490000000     0.180300000000    -0.1934     
N50      N      0.070530000000     0.291330000000     0.265530000000    -0.192026   
N51      N      0.405210000000     0.451550000000     0.429020000000    -0.194675   
N52      N      0.249340000000     0.375470000000     0.347600000000    -0.192209   
N53      N      0.510470000000     0.990670000000     0.590870000000    -0.193772   
N54      N      0.516630000000     0.000270000000     0.828240000000    -0.192441   
N55      N      0.474560000000     0.002170000000     0.328210000000    -0.194238   
N56      N      0.473930000000     0.994780000000     0.090800000000    -0.192182   
N57      N      0.738020000000     0.112100000000     0.092840000000    -0.193227   
N58      N      0.585140000000     0.038640000000     0.000810000000    -0.192014   
N59      N      0.181430000000     0.854010000000     0.436880000000    -0.193566   
N60      N      0.178480000000     0.850020000000     0.674370000000    -0.192461   
N61      N      0.146560000000     0.819000000000     0.938930000000    -0.19775    
N62      N      0.146820000000     0.808450000000     0.174160000000    -0.192531   
N63      N      0.250430000000     0.881210000000     0.843240000000    -0.197756   
N64      N      0.406230000000     0.956810000000     0.919720000000    -0.192291   
N65      N      0.805110000000     0.658810000000     0.765880000000    -0.194346   
N66      N      0.810130000000     0.666510000000     0.003050000000    -0.192201   
N67      N      0.846190000000     0.659260000000     0.266230000000    -0.194146   
N68      N      0.850880000000     0.668980000000     0.503470000000    -0.192094   
N69      N      0.584740000000     0.536020000000     0.509320000000    -0.193912   
N70      N      0.739280000000     0.617340000000     0.594720000000    -0.192263   
N71      N      0.918640000000     0.711680000000     0.675700000000    -0.194153   
N72      N      0.070290000000     0.787330000000     0.771490000000    -0.192019   
O1       O      0.874010000000     0.710410000000     0.650360000000    -0.393853   
O2       O      0.783590000000     0.662940000000     0.612680000000    -0.39739    
O3       O      0.816020000000     0.683410000000     0.697040000000    -0.396132   
O4       O      0.841460000000     0.689840000000     0.566340000000    -0.396702   
O5       O      0.841830000000     0.645420000000     0.572620000000    -0.397538   
O6       O      0.815960000000     0.638880000000     0.702850000000    -0.394884   
O7       O      0.783780000000     0.618430000000     0.618960000000    -0.396811   
O8       O      0.874180000000     0.666050000000     0.657180000000    -0.396378   
O9       O      0.113340000000     0.831440000000     0.797790000000    -0.395589   
O10      O      0.206370000000     0.880670000000     0.820200000000    -0.394851   
O11      O      0.167240000000     0.863290000000     0.742830000000    -0.3975     
O12      O      0.153320000000     0.848730000000     0.876840000000    -0.39341    
O13      O      0.148610000000     0.801920000000     0.868930000000    -0.395981   
O14      O      0.174370000000     0.822580000000     0.738680000000    -0.397262   
O15      O      0.206700000000     0.836010000000     0.824040000000    -0.394896   
O16      O      0.116660000000     0.789100000000     0.784910000000    -0.398192   
O17      O      0.452500000000     0.000470000000     0.937630000000    -0.396972   
O18      O      0.542980000000     0.041550000000     0.975190000000    -0.396851   
O19      O      0.509930000000     0.023000000000     0.891200000000    -0.397582   
O20      O      0.485400000000     0.018920000000     0.021880000000    -0.397124   
O21      O      0.481560000000     0.972510000000     0.028070000000    -0.397876   
O22      O      0.506190000000     0.976640000000     0.897480000000    -0.396887   
O23      O      0.539060000000     0.995130000000     0.981910000000    -0.396886   
O24      O      0.448730000000     0.954100000000     0.944070000000    -0.39776    
O25      O      0.206510000000     0.377450000000     0.323090000000    -0.397212   
O26      O      0.116630000000     0.335340000000     0.282820000000    -0.39635    
O27      O      0.148630000000     0.354330000000     0.367740000000    -0.394195   
O28      O      0.174840000000     0.358480000000     0.238000000000    -0.393723   
O29      O      0.170610000000     0.312080000000     0.244480000000    -0.396284   
O30      O      0.146120000000     0.308820000000     0.375180000000    -0.396217   
O31      O      0.113060000000     0.289210000000     0.291390000000    -0.396993   
O32      O      0.203780000000     0.331490000000     0.328170000000    -0.395737   
O33      O      0.778350000000     0.157380000000     0.121810000000    -0.396488   
O34      O      0.867900000000     0.210100000000     0.161940000000    -0.39237    
O35      O      0.835560000000     0.196450000000     0.076970000000    -0.392484   
O36      O      0.810500000000     0.170930000000     0.206340000000    -0.39701    
O37      O      0.817970000000     0.130950000000     0.197230000000    -0.392324   
O38      O      0.843020000000     0.156460000000     0.067830000000    -0.397021   
O39      O      0.875190000000     0.170000000000     0.152280000000    -0.3968     
O40      O      0.785660000000     0.117290000000     0.112160000000    -0.392418   
O41      O      0.539380000000     0.536340000000     0.494700000000    -0.398501   
O42      O      0.449400000000     0.494050000000     0.456210000000    -0.39554    
O43      O      0.481470000000     0.503870000000     0.540870000000    -0.395879   
O44      O      0.507050000000     0.526100000000     0.410600000000    -0.395796   
O45      O      0.506030000000     0.481160000000     0.401720000000    -0.396944   
O46      O      0.482920000000     0.460370000000     0.532560000000    -0.393697   
O47      O      0.448650000000     0.449140000000     0.449800000000    -0.394237   
O48      O      0.540040000000     0.492490000000     0.484200000000    -0.391466   
O49      O      0.116230000000     0.328070000000     0.827790000000    -0.395308   
O50      O      0.162390000000     0.283300000000     0.791260000000    -0.396141   
O51      O      0.148860000000     0.303090000000     0.875050000000    -0.396741   
O52      O      0.129690000000     0.308120000000     0.744040000000    -0.397373   
O53      O      0.172630000000     0.354320000000     0.738780000000    -0.396876   
O54      O      0.193390000000     0.347760000000     0.868570000000    -0.396979   
O55      O      0.205730000000     0.328900000000     0.783140000000    -0.399302   
O56      O      0.160580000000     0.373090000000     0.824570000000    -0.396253   
O57      O      0.284560000000     0.164950000000     0.655720000000    -0.395812   
O58      O      0.326980000000     0.117190000000     0.615750000000    -0.395029   
O59      O      0.308820000000     0.130970000000     0.700820000000    -0.396974   
O60      O      0.302470000000     0.151150000000     0.570860000000    -0.394307   
O61      O      0.348510000000     0.193960000000     0.575930000000    -0.396436   
O62      O      0.354760000000     0.173920000000     0.706090000000    -0.393982   
O63      O      0.372850000000     0.160210000000     0.621950000000    -0.3961     
O64      O      0.330620000000     0.207740000000     0.661110000000    -0.395351   
O65      O      0.990570000000     0.448460000000     0.944130000000    -0.39554    
O66      O      0.945780000000     0.495320000000     0.975830000000    -0.393075   
O67      O      0.968220000000     0.482510000000     0.894310000000    -0.398146   
O68      O      0.968120000000     0.461330000000     0.025530000000    -0.394368   
O69      O      0.013950000000     0.503770000000     0.034320000000    -0.398301   
O70      O      0.013260000000     0.526280000000     0.903730000000    -0.398238   
O71      O      0.991140000000     0.538170000000     0.986750000000    -0.397197   
O72      O      0.035930000000     0.492200000000     0.951240000000    -0.398515   
O73      O      0.619510000000     0.834430000000     0.318770000000    -0.396114   
O74      O      0.660930000000     0.785390000000     0.280760000000    -0.39544    
O75      O      0.640350000000     0.797880000000     0.364870000000    -0.393559   
O76      O      0.639910000000     0.822080000000     0.235180000000    -0.398137   
O77      O      0.686250000000     0.863780000000     0.244480000000    -0.392988   
O78      O      0.686680000000     0.839560000000     0.374300000000    -0.39761    
O79      O      0.707290000000     0.827430000000     0.290790000000    -0.398545   
O80      O      0.665880000000     0.876160000000     0.328600000000    -0.394186   
O81      O      0.783070000000     0.662870000000     0.155840000000    -0.396218   
O82      O      0.828850000000     0.617850000000     0.119660000000    -0.396858   
O83      O      0.815780000000     0.637940000000     0.203040000000    -0.394138   
O84      O      0.796260000000     0.642770000000     0.072180000000    -0.39701    
O85      O      0.840230000000     0.687990000000     0.065870000000    -0.397658   
O86      O      0.859370000000     0.683250000000     0.196950000000    -0.396644   
O87      O      0.872730000000     0.663140000000     0.113270000000    -0.397188   
O88      O      0.826770000000     0.708020000000     0.148840000000    -0.394321   
O89      O      0.494520000000     0.952020000000     0.442850000000    -0.397147   
O90      O      0.446810000000     0.994580000000     0.481440000000    -0.395915   
O91      O      0.461210000000     0.976810000000     0.396560000000    -0.396087   
O92      O      0.480330000000     0.970010000000     0.527130000000    -0.393277   
O93      O      0.523500000000     0.015750000000     0.522360000000    -0.397885   
O94      O      0.504340000000     0.022630000000     0.392120000000    -0.394804   
O95      O      0.490130000000     0.040470000000     0.476380000000    -0.397886   
O96      O      0.537760000000     0.997960000000     0.437660000000    -0.397166   
O97      O      0.326990000000     0.119740000000     0.159720000000    -0.39717    
O98      O      0.372880000000     0.210270000000     0.122650000000    -0.397252   
O99      O      0.352670000000     0.177260000000     0.206720000000    -0.398163   
O100     O      0.347380000000     0.152760000000     0.076040000000    -0.398329   
O101     O      0.302920000000     0.153090000000     0.069220000000    -0.396277   
O102     O      0.307090000000     0.175410000000     0.201000000000    -0.396295   
O103     O      0.327960000000     0.209950000000     0.118570000000    -0.396254   
O104     O      0.282010000000     0.118600000000     0.151580000000    -0.393218   
O105     O      0.497010000000     0.453540000000     0.990750000000    -0.395351   
O106     O      0.541130000000     0.542790000000     0.948670000000    -0.398088   
O107     O      0.529000000000     0.511930000000     0.034360000000    -0.396076   
O108     O      0.508720000000     0.484110000000     0.904570000000    -0.395837   
O109     O      0.465190000000     0.486350000000     0.909740000000    -0.397721   
O110     O      0.484420000000     0.511860000000     0.040120000000    -0.393545   
O111     O      0.497260000000     0.544210000000     0.955970000000    -0.39576    
O112     O      0.452370000000     0.453650000000     0.994180000000    -0.394363   
O113     O      0.208240000000     0.875900000000     0.282700000000    -0.397471   
O114     O      0.163900000000     0.786010000000     0.322550000000    -0.398097   
O115     O      0.176360000000     0.817630000000     0.237680000000    -0.399757   
O116     O      0.195630000000     0.844040000000     0.367480000000    -0.39569    
O117     O      0.151200000000     0.844110000000     0.373280000000    -0.396383   
O118     O      0.132370000000     0.819050000000     0.242330000000    -0.39629    
O119     O      0.119240000000     0.786230000000     0.326090000000    -0.396572   
O120     O      0.164130000000     0.876910000000     0.289370000000    -0.39671    
O121     O      0.044220000000     0.541100000000     0.447250000000    -0.39497    
O122     O      0.998290000000     0.450980000000     0.485130000000    -0.394045   
O123     O      0.017120000000     0.483550000000     0.401300000000    -0.397568   
O124     O      0.025350000000     0.509000000000     0.532170000000    -0.392213   
O125     O      0.980900000000     0.509210000000     0.527830000000    -0.399555   
O126     O      0.971940000000     0.482710000000     0.397850000000    -0.398369   
O127     O      0.953550000000     0.450940000000     0.482860000000    -0.396799   
O128     O      0.999560000000     0.541160000000     0.443450000000    -0.395503   
O129     O      0.872390000000     0.208810000000     0.617090000000    -0.397202   
O130     O      0.825460000000     0.117920000000     0.652030000000    -0.397853   
O131     O      0.839780000000     0.151470000000     0.568840000000    -0.397337   
O132     O      0.857940000000     0.174990000000     0.700160000000    -0.397564   
O133     O      0.814870000000     0.178140000000     0.704940000000    -0.396503   
O134     O      0.795690000000     0.152650000000     0.574280000000    -0.39687    
O135     O      0.782000000000     0.120170000000     0.658950000000    -0.396839   
O136     O      0.828410000000     0.210380000000     0.620210000000    -0.397385   
O137     O      0.661080000000     0.786560000000     0.825150000000    -0.396761   
O138     O      0.706700000000     0.877730000000     0.791310000000    -0.394036   
O139     O      0.686220000000     0.843660000000     0.873550000000    -0.398872   
O140     O      0.681990000000     0.820900000000     0.742310000000    -0.397776   
O141     O      0.636690000000     0.819550000000     0.735870000000    -0.397258   
O142     O      0.640810000000     0.842120000000     0.867530000000    -0.396157   
O143     O      0.661580000000     0.876500000000     0.784600000000    -0.397237   
O144     O      0.616000000000     0.785380000000     0.818100000000    -0.394395   
S1       S      0.758930000000     0.934540000000     0.808070000000    -0.0175874  
S2       S      0.993460000000     0.393760000000     0.467180000000    -0.0151267  
S3       S      0.087670000000     0.577410000000     0.383110000000    -0.0174836  
S4       S      0.563880000000     0.728730000000     0.800380000000    -0.0176165  
S5       S      0.229500000000     0.061900000000     0.135780000000    -0.0170602  
S6       S      0.504540000000     0.418890000000     0.057270000000    -0.0190386  
S7       S      0.608310000000     0.757090000000     0.432000000000    -0.015347   
S8       S      0.718080000000     0.904550000000     0.177200000000    -0.0136077  
S9       S      0.822360000000     0.760330000000     0.133210000000    -0.0174905  
S10      S      0.672020000000     0.921350000000     0.387250000000    -0.014605   
S11      S      0.064740000000     0.536330000000     0.603830000000    -0.0143702  
S12      S      0.935370000000     0.422410000000     0.093820000000    -0.0131935  
S13      S      0.894230000000     0.501200000000     0.959760000000    -0.0164138  
S14      S      0.394060000000     0.179300000000     0.775320000000    -0.0149871  
S15      S      0.262800000000     0.144970000000     0.502100000000    -0.0178389  
S16      S      0.423180000000     0.152630000000     0.640670000000    -0.0160592  
S17      S      0.166860000000     0.413940000000     0.892680000000    -0.0177548  
S18      S      0.337910000000     0.252240000000     0.721890000000    -0.0134569  
S19      S      0.473270000000     0.420110000000     0.600670000000    -0.0137724  
S20      S      0.477460000000     0.544920000000     0.109230000000    -0.0167563  
S21      S      0.844970000000     0.237960000000     0.010440000000    -0.0140034  
S22      S      0.809890000000     0.090180000000     0.264230000000    -0.0136985  
S23      S      0.136270000000     0.383200000000     0.435600000000    -0.0145182  
S24      S      0.207430000000     0.396510000000     0.167390000000    -0.0156963  
S25      S      0.906400000000     0.258330000000     0.216700000000    -0.0140371  
S26      S      0.414970000000     0.503300000000     0.391080000000    -0.0172929  
S27      S      0.471630000000     0.930690000000     0.597390000000    -0.0165598  
S28      S      0.511600000000     0.062540000000     0.323250000000    -0.0173781  
S29      S      0.747620000000     0.069270000000     0.056900000000    -0.0142549  
S30      S      0.237810000000     0.861490000000     0.435320000000    -0.0158981  
S31      S      0.207040000000     0.867080000000     0.944220000000    -0.0116331  
S32      S      0.230020000000     0.845460000000     0.919370000000    -0.0133318  
S33      S      0.782640000000     0.598610000000     0.771280000000    -0.0172055  
S34      S      0.809420000000     0.598950000000     0.273010000000    -0.0169601  
S35      S      0.596510000000     0.495800000000     0.469930000000    -0.016033   
S36      S      0.930040000000     0.764540000000     0.639660000000    -0.0174966  


