data_structure

_audit_creation_method RASPA-1.0
_audit_creation_date 2023-5-23
_audit_author_name 'Poobodin Mano'

_cell_length_a    45.4981
_cell_length_b    45.4922
_cell_length_c    30.4064
_cell_angle_alpha 90
_cell_angle_beta  90
_cell_angle_gamma 90
_cell_volume      62935.4

_symmetry_cell_setting          triclinic
_symmetry_space_group_name_Hall 'P 1'
_symmetry_space_group_name_H-M  'P 1'
_symmetry_Int_Tables_number     1

_symmetry_equiv_pos_as_xyz 'x,y,z'

loop_
_atom_site_label
_atom_site_type_symbol
_atom_site_fract_x
_atom_site_fract_y
_atom_site_fract_z
_atom_site_charge
C1       C      0.555840000000     0.827920000000     0.998020000000     0.40557    
C2       C      0.438650000000     0.828430000000     0.993340000000     0.405812   
C3       C      0.495840000000     0.827920000000     0.083400000000     0.405818   
C4       C      0.498440000000     0.828380000000     0.908040000000     0.405809   
C5       C      0.435200000000     0.827580000000     0.496160000000     0.405917   
C6       C      0.552490000000     0.828010000000     0.495480000000     0.405624   
C7       C      0.493560000000     0.827580000000     0.408030000000     0.406027   
C8       C      0.494310000000     0.828050000000     0.583480000000     0.406111   
C9       C      0.829410000000     0.553330000000     0.992170000000     0.405694   
C10      C      0.828180000000     0.436090000000     0.991890000000     0.405848   
C11      C      0.829160000000     0.494760000000     0.079880000000     0.405593   
C12      C      0.828440000000     0.494780000000     0.904490000000     0.406054   
C13      C      0.829270000000     0.436980000000     0.491640000000     0.405716   
C14      C      0.828190000000     0.554250000000     0.493160000000     0.405933   
C15      C      0.829210000000     0.495950000000     0.404510000000     0.405874   
C16      C      0.828270000000     0.495130000000     0.579930000000     0.406099   
C17      C      0.552850000000     0.162050000000     0.992800000000     0.405672   
C18      C      0.435610000000     0.162390000000     0.992020000000     0.405664   
C19      C      0.494020000000     0.162080000000     0.080140000000     0.405932   
C20      C      0.494640000000     0.162370000000     0.904730000000     0.405747   
C21      C      0.438700000000     0.162110000000     0.493740000000     0.405797   
C22      C      0.555920000000     0.162630000000     0.491300000000     0.405859   
C23      C      0.496520000000     0.162210000000     0.404770000000     0.405689   
C24      C      0.497900000000     0.162510000000     0.580170000000     0.405831   
C25      C      0.164010000000     0.554090000000     0.996300000000     0.405769   
C26      C      0.161250000000     0.436820000000     0.997650000000     0.405749   
C27      C      0.162230000000     0.495710000000     0.084470000000     0.406571   
C28      C      0.163030000000     0.495150000000     0.909050000000     0.406208   
C29      C      0.164050000000     0.436290000000     0.496770000000     0.405752   
C30      C      0.161080000000     0.553530000000     0.496040000000     0.405806   
C31      C      0.162270000000     0.494830000000     0.409000000000     0.406536   
C32      C      0.162890000000     0.495040000000     0.584410000000     0.406038   
C33      C      0.830520000000     0.768980000000     0.996090000000     0.405675   
C34      C      0.829570000000     0.886220000000     0.000150000000     0.406056   
C35      C      0.771510000000     0.827240000000     0.999600000000     0.405552   
C36      C      0.888780000000     0.827960000000     0.996680000000     0.405748   
C37      C      0.826670000000     0.769920000000     0.494960000000     0.40595    
C38      C      0.826900000000     0.887190000000     0.493100000000     0.406074   
C39      C      0.768080000000     0.828600000000     0.494930000000     0.405823   
C40      C      0.885330000000     0.828580000000     0.493260000000     0.406168   
C41      C      0.826890000000     0.220400000000     0.994350000000     0.405829   
C42      C      0.827550000000     0.103160000000     0.999000000000     0.405863   
C43      C      0.768510000000     0.161550000000     0.995550000000     0.405794   
C44      C      0.885740000000     0.161930000000     0.997510000000     0.406219   
C45      C      0.830480000000     0.221360000000     0.491760000000     0.405705   
C46      C      0.829860000000     0.104130000000     0.491820000000     0.406032   
C47      C      0.771630000000     0.163010000000     0.490950000000     0.405782   
C48      C      0.888860000000     0.162520000000     0.492790000000     0.405719   
C49      C      0.160680000000     0.221190000000     0.996760000000     0.405637   
C50      C      0.161540000000     0.103950000000     0.991850000000     0.40572    
C51      C      0.219880000000     0.162910000000     0.993520000000     0.405626   
C52      C      0.102640000000     0.162240000000     0.995400000000     0.405963   
C53      C      0.165060000000     0.220610000000     0.495960000000     0.405753   
C54      C      0.163970000000     0.103380000000     0.496610000000     0.406052   
C55      C      0.223030000000     0.161580000000     0.496470000000     0.40578    
C56      C      0.105810000000     0.162400000000     0.495840000000     0.405679   
C57      C      0.164110000000     0.886990000000     0.989530000000     0.405847   
C58      C      0.164930000000     0.769710000000     0.992750000000     0.405729   
C59      C      0.105770000000     0.828020000000     0.992330000000     0.40578    
C60      C      0.223030000000     0.828740000000     0.989970000000     0.405763   
C61      C      0.160100000000     0.769160000000     0.493520000000     0.405707   
C62      C      0.161480000000     0.886420000000     0.495640000000     0.406031   
C63      C      0.219540000000     0.827220000000     0.495000000000     0.405727   
C64      C      0.102280000000     0.828360000000     0.494000000000     0.406121   
C65      C      0.156210000000     0.962750000000     0.458110000000    -0.0852523  
C66      C      0.162540000000     0.978450000000     0.496720000000     0.0342491  
C67      C      0.168330000000     0.962270000000     0.535110000000    -0.0850504  
C68      C      0.167400000000     0.931570000000     0.534360000000     0.0702599  
C69      C      0.156360000000     0.932070000000     0.458250000000     0.0703621  
C70      C      0.163090000000     0.011340000000     0.496850000000     0.0342336  
C71      C      0.156160000000     0.027380000000     0.534940000000    -0.0851052  
C72      C      0.157030000000     0.058070000000     0.534470000000     0.0702288  
C73      C      0.170250000000     0.057870000000     0.459140000000     0.0703336  
C74      C      0.170480000000     0.027190000000     0.458780000000    -0.0852609  
C75      C      0.155710000000     0.027370000000     0.027850000000    -0.0853158  
C76      C      0.162380000000     0.011930000000     0.989120000000     0.0342263  
C77      C      0.168330000000     0.028370000000     0.951040000000    -0.0849572  
C78      C      0.167400000000     0.059090000000     0.952290000000     0.0701266  
C79      C      0.155920000000     0.058030000000     0.028230000000     0.0705935  
C80      C      0.163240000000     0.979030000000     0.988750000000     0.0341649  
C81      C      0.170330000000     0.963220000000     0.026960000000    -0.085337   
C82      C      0.170150000000     0.932570000000     0.026670000000     0.070582   
C83      C      0.157850000000     0.932210000000     0.951000000000     0.0701164  
C84      C      0.156900000000     0.962940000000     0.950450000000    -0.0848423  
C85      C      0.965230000000     0.169240000000     0.455800000000    -0.0851694  
C86      C      0.980890000000     0.162580000000     0.494320000000     0.0342357  
C87      C      0.964690000000     0.155920000000     0.532340000000    -0.0851055  
C88      C      0.934000000000     0.156390000000     0.531400000000     0.0701484  
C89      C      0.934540000000     0.168690000000     0.455720000000     0.0702045  
C90      C      0.013780000000     0.162540000000     0.494790000000     0.0342047  
C91      C      0.029510000000     0.169320000000     0.533210000000    -0.0850777  
C92      C      0.060210000000     0.168780000000     0.533150000000     0.0701006  
C93      C      0.060590000000     0.156190000000     0.457580000000     0.0702666  
C94      C      0.029910000000     0.155700000000     0.456780000000    -0.0851633  
C95      C      0.961760000000     0.155050000000     0.959370000000    -0.0854194  
C96      C      0.977750000000     0.161970000000     0.997460000000     0.0342515  
C97      C      0.961860000000     0.168640000000     0.035820000000    -0.0849407  
C98      C      0.931150000000     0.168010000000     0.035530000000     0.0703131  
C99      C      0.931110000000     0.155570000000     0.959900000000     0.0705928  
C100     C      0.010650000000     0.162190000000     0.997050000000     0.0343037  
C101     C      0.026290000000     0.168420000000     0.958330000000    -0.085243   
C102     C      0.056970000000     0.167850000000     0.958200000000     0.0704333  
C103     C      0.057560000000     0.156620000000     0.034250000000     0.0705055  
C104     C      0.026870000000     0.156060000000     0.035240000000    -0.085116   
C105     C      0.961390000000     0.822100000000     0.454660000000    -0.085088   
C106     C      0.977350000000     0.828740000000     0.492960000000     0.0343319  
C107     C      0.961410000000     0.835510000000     0.531190000000    -0.0853561  
C108     C      0.930750000000     0.834900000000     0.530800000000     0.0705728  
C109     C      0.930680000000     0.822680000000     0.455100000000     0.0703543  
C110     C      0.010260000000     0.828600000000     0.493160000000     0.0342848  
C111     C      0.026370000000     0.834600000000     0.454790000000    -0.0850831  
C112     C      0.057060000000     0.833980000000     0.455510000000     0.0704175  
C113     C      0.056740000000     0.823040000000     0.531650000000     0.0704833  
C114     C      0.026060000000     0.822490000000     0.531790000000    -0.085204   
C115     C      0.822020000000     0.963190000000     0.453650000000    -0.0851064  
C116     C      0.828070000000     0.979210000000     0.492090000000     0.0343131  
C117     C      0.833740000000     0.963360000000     0.530790000000    -0.0853099  
C118     C      0.832780000000     0.932700000000     0.530640000000     0.0704517  
C119     C      0.822140000000     0.932480000000     0.454400000000     0.0702767  
C120     C      0.828470000000     0.012110000000     0.491920000000     0.0342546  
C121     C      0.836030000000     0.027900000000     0.453870000000    -0.0851077  
C122     C      0.835970000000     0.058600000000     0.454240000000     0.0702582  
C123     C      0.822420000000     0.058860000000     0.529440000000     0.0702949  
C124     C      0.821370000000     0.028190000000     0.529880000000    -0.0852413  
C125     C      0.965230000000     0.821460000000     0.033320000000    -0.08514    
C126     C      0.980820000000     0.828050000000     0.994700000000     0.0341524  
C127     C      0.964510000000     0.834600000000     0.956710000000    -0.0850042  
C128     C      0.933810000000     0.834030000000     0.957760000000     0.0702536  
C129     C      0.934550000000     0.821990000000     0.033520000000     0.0703297  
C130     C      0.013730000000     0.828040000000     0.994090000000     0.034193   
C131     C      0.030000000000     0.834560000000     0.032120000000    -0.0849903  
C132     C      0.060690000000     0.833960000000     0.031140000000     0.0702996  
C133     C      0.060040000000     0.821980000000     0.955360000000     0.0702424  
C134     C      0.029340000000     0.821480000000     0.955490000000    -0.0851524  
C135     C      0.834920000000     0.026800000000     0.962690000000    -0.0854804  
C136     C      0.828580000000     0.011150000000     0.001340000000     0.0343914  
C137     C      0.822260000000     0.027380000000     0.039490000000    -0.0850131  
C138     C      0.822530000000     0.058110000000     0.038380000000     0.0702138  
C139     C      0.834060000000     0.057440000000     0.962440000000     0.0705165  
C140     C      0.828450000000     0.978240000000     0.001540000000     0.0343527  
C141     C      0.821690000000     0.962390000000     0.963230000000    -0.0855184  
C142     C      0.822570000000     0.931750000000     0.963310000000     0.0705106  
C143     C      0.834900000000     0.931450000000     0.038970000000     0.0702285  
C144     C      0.835160000000     0.962200000000     0.039730000000    -0.084941   
C145     C      0.133420000000     0.629210000000     0.500700000000    -0.0865823  
C146     C      0.159150000000     0.645150000000     0.492970000000     0.0343576  
C147     C      0.185460000000     0.630030000000     0.486250000000    -0.0868676  
C148     C      0.185750000000     0.599370000000     0.487900000000     0.0702737  
C149     C      0.134350000000     0.598500000000     0.501110000000     0.070081   
C150     C      0.158750000000     0.677520000000     0.492770000000     0.0344091  
C151     C      0.163680000000     0.693100000000     0.453880000000    -0.0866773  
C152     C      0.163630000000     0.723820000000     0.454540000000     0.0701514  
C153     C      0.154840000000     0.723680000000     0.531460000000     0.0702563  
C154     C      0.154060000000     0.693000000000     0.531760000000    -0.0868537  
C155     C      0.160560000000     0.296740000000     0.456990000000    -0.0867282  
C156     C      0.166240000000     0.312270000000     0.495690000000     0.0343406  
C157     C      0.171690000000     0.296710000000     0.534420000000    -0.0867238  
C158     C      0.170920000000     0.266020000000     0.534030000000     0.0701328  
C159     C      0.160660000000     0.266040000000     0.457510000000     0.0701335  
C160     C      0.165840000000     0.344650000000     0.495850000000     0.0343804  
C161     C      0.191610000000     0.360630000000     0.503070000000    -0.0866154  
C162     C      0.190730000000     0.391340000000     0.502760000000     0.070152   
C163     C      0.139300000000     0.390420000000     0.489900000000     0.070295   
C164     C      0.139540000000     0.359750000000     0.488960000000    -0.0867946  
C165     C      0.162640000000     0.693150000000     0.955310000000    -0.0868509  
C166     C      0.166020000000     0.678070000000     0.994950000000     0.0342118  
C167     C      0.169150000000     0.694030000000     0.033890000000    -0.0865592  
C168     C      0.168520000000     0.724730000000     0.032650000000     0.0700922  
C169     C      0.162630000000     0.723840000000     0.955120000000     0.070116   
C170     C      0.165620000000     0.645730000000     0.995680000000     0.0342081  
C171     C      0.191630000000     0.629800000000     0.000820000000    -0.0865114  
C172     C      0.190780000000     0.599080000000     0.000580000000     0.0700796  
C173     C      0.138980000000     0.599950000000     0.991480000000     0.0700933  
C174     C      0.139140000000     0.630620000000     0.990800000000    -0.0868053  
C175     C      0.154470000000     0.297710000000     0.960260000000    -0.0867764  
C176     C      0.159260000000     0.312810000000     0.999550000000     0.0341526  
C177     C      0.164380000000     0.296860000000     0.038040000000    -0.0864748  
C178     C      0.164380000000     0.266150000000     0.036720000000     0.0700852  
C179     C      0.155290000000     0.267040000000     0.959880000000     0.07018    
C180     C      0.159550000000     0.345190000000     0.000020000000     0.0346475  
C181     C      0.185890000000     0.360330000000     0.006270000000    -0.0868764  
C182     C      0.186090000000     0.391010000000     0.004960000000     0.0703287  
C183     C      0.134550000000     0.391810000000     0.993080000000     0.0701949  
C184     C      0.133700000000     0.361100000000     0.993190000000    -0.0868379  
C185     C      0.137620000000     0.501430000000     0.795110000000    -0.0852945  
C186     C      0.163290000000     0.495040000000     0.771340000000     0.0341367  
C187     C      0.188940000000     0.488760000000     0.795270000000    -0.0850875  
C188     C      0.188590000000     0.489330000000     0.841220000000     0.0701676  
C189     C      0.137850000000     0.500930000000     0.841010000000     0.0702339  
C190     C      0.163260000000     0.494930000000     0.722120000000     0.0341655  
C191     C      0.137700000000     0.488000000000     0.698390000000    -0.0852521  
C192     C      0.137860000000     0.488580000000     0.652480000000     0.0701598  
C193     C      0.188330000000     0.501330000000     0.652220000000     0.0701083  
C194     C      0.188720000000     0.501830000000     0.698160000000    -0.0851835  
C195     C      0.187520000000     0.488710000000     0.198320000000    -0.0854221  
C196     C      0.161930000000     0.495400000000     0.222120000000     0.0342832  
C197     C      0.136390000000     0.502150000000     0.198230000000    -0.0851434  
C198     C      0.136740000000     0.501700000000     0.152290000000     0.0703368  
C199     C      0.187320000000     0.489410000000     0.152440000000     0.0705107  
C200     C      0.161950000000     0.495330000000     0.271340000000     0.0342545  
C201     C      0.187680000000     0.501500000000     0.295140000000    -0.0853113  
C202     C      0.187500000000     0.500730000000     0.341030000000     0.0704345  
C203     C      0.136690000000     0.489400000000     0.341170000000     0.0703558  
C204     C      0.136300000000     0.489030000000     0.295240000000    -0.0852302  
C205     C      0.362800000000     0.136060000000     0.504640000000    -0.0866716  
C206     C      0.347070000000     0.161790000000     0.496090000000     0.0344318  
C207     C      0.362430000000     0.187640000000     0.486860000000    -0.086732   
C208     C      0.393130000000     0.187450000000     0.486780000000     0.0702212  
C209     C      0.393480000000     0.136460000000     0.503200000000     0.070235   
C210     C      0.314680000000     0.161630000000     0.496300000000     0.0343772  
C211     C      0.299190000000     0.155800000000     0.534990000000    -0.0865531  
C212     C      0.268480000000     0.156200000000     0.534630000000     0.0700652  
C213     C      0.268400000000     0.166860000000     0.458240000000     0.0703136  
C214     C      0.299070000000     0.167360000000     0.457710000000    -0.0867974  
C215     C      0.631950000000     0.188800000000     0.498770000000    -0.0866525  
C216     C      0.647570000000     0.163040000000     0.489930000000     0.0343449  
C217     C      0.632080000000     0.137160000000     0.481370000000    -0.0865646  
C218     C      0.601390000000     0.137320000000     0.482430000000     0.0701397  
C219     C      0.601260000000     0.188370000000     0.498480000000     0.0701508  
C220     C      0.679970000000     0.163110000000     0.490070000000     0.0343672  
C221     C      0.695380000000     0.168990000000     0.528800000000    -0.086673   
C222     C      0.726060000000     0.168540000000     0.528620000000     0.0701573  
C223     C      0.726370000000     0.157710000000     0.452280000000     0.070058   
C224     C      0.695660000000     0.157260000000     0.451580000000    -0.086588   
C225     C      0.359420000000     0.136820000000     0.000670000000    -0.0863351  
C226     C      0.343950000000     0.162700000000     0.992040000000     0.0342547  
C227     C      0.359580000000     0.188450000000     0.983250000000    -0.0865757  
C228     C      0.390280000000     0.188050000000     0.983860000000     0.0700749  
C229     C      0.390120000000     0.137000000000     0.999920000000     0.0698831  
C230     C      0.311550000000     0.162840000000     0.992400000000     0.0343044  
C231     C      0.295790000000     0.168790000000     0.953990000000    -0.0866326  
C232     C      0.265100000000     0.168390000000     0.954810000000     0.0701427  
C233     C      0.265500000000     0.157500000000     0.031130000000     0.0702     
C234     C      0.296190000000     0.156990000000     0.031190000000    -0.0865921  
C235     C      0.692710000000     0.156480000000     0.955300000000    -0.0866707  
C236     C      0.676870000000     0.161670000000     0.993870000000     0.0343481  
C237     C      0.692110000000     0.166760000000     0.032990000000    -0.0867052  
C238     C      0.722800000000     0.166260000000     0.033080000000     0.070249   
C239     C      0.723410000000     0.156850000000     0.956320000000     0.070233   
C240     C      0.644490000000     0.161790000000     0.993340000000     0.0343156  
C241     C      0.628900000000     0.136030000000     0.984440000000    -0.0866891  
C242     C      0.598210000000     0.136420000000     0.984900000000     0.0702315  
C243     C      0.598300000000     0.187440000000     0.001110000000     0.0702895  
C244     C      0.628990000000     0.187650000000     0.001990000000    -0.0866268  
C245     C      0.502740000000     0.188060000000     0.791130000000    -0.0852245  
C246     C      0.496330000000     0.162520000000     0.767060000000     0.0341793  
C247     C      0.489250000000     0.136940000000     0.790630000000    -0.0852345  
C248     C      0.489140000000     0.137190000000     0.836560000000     0.0702096  
C249     C      0.501600000000     0.187730000000     0.837030000000     0.07008    
C250     C      0.496980000000     0.162560000000     0.717860000000     0.0341367  
C251     C      0.490480000000     0.188130000000     0.693900000000    -0.085186   
C252     C      0.491420000000     0.187850000000     0.647990000000     0.0700889  
C253     C      0.503960000000     0.137320000000     0.648230000000     0.0701075  
C254     C      0.504050000000     0.137030000000     0.694170000000    -0.0851805  
C255     C      0.501180000000     0.136430000000     0.193920000000    -0.0851822  
C256     C      0.494660000000     0.162010000000     0.217850000000     0.0341273  
C257     C      0.487740000000     0.187570000000     0.194110000000    -0.0852292  
C258     C      0.487980000000     0.187280000000     0.148180000000     0.070152   
C259     C      0.500370000000     0.136720000000     0.148000000000     0.0700673  
C260     C      0.495120000000     0.162060000000     0.267070000000     0.0341456  
C261     C      0.488690000000     0.136500000000     0.291120000000    -0.0852355  
C262     C      0.489690000000     0.136840000000     0.337030000000     0.0701412  
C263     C      0.502000000000     0.187420000000     0.336620000000     0.0700727  
C264     C      0.502050000000     0.187660000000     0.290690000000    -0.0852139  
C265     C      0.803620000000     0.360650000000     0.487050000000    -0.0867819  
C266     C      0.830040000000     0.345350000000     0.491560000000     0.0343949  
C267     C      0.856210000000     0.361080000000     0.495990000000    -0.0868307  
C268     C      0.855600000000     0.391780000000     0.495460000000     0.0702263  
C269     C      0.803710000000     0.391350000000     0.487540000000     0.0701801  
C270     C      0.830280000000     0.313000000000     0.491600000000     0.0342961  
C271     C      0.835030000000     0.297530000000     0.530600000000    -0.0867368  
C272     C      0.834770000000     0.266830000000     0.530160000000     0.0701162  
C273     C      0.826160000000     0.266740000000     0.453180000000     0.0700399  
C274     C      0.825690000000     0.297440000000     0.452640000000    -0.0867379  
C275     C      0.853360000000     0.630540000000     0.502970000000    -0.0866127  
C276     C      0.827250000000     0.645890000000     0.495610000000     0.0343508  
C277     C      0.801460000000     0.630170000000     0.487500000000    -0.0867307  
C278     C      0.802090000000     0.599480000000     0.487310000000     0.0701954  
C279     C      0.853370000000     0.599840000000     0.501550000000     0.0701071  
C280     C      0.827000000000     0.678260000000     0.495650000000     0.0343391  
C281     C      0.831470000000     0.693920000000     0.534580000000    -0.0865718  
C282     C      0.830900000000     0.724630000000     0.533940000000     0.0700617  
C283     C      0.822570000000     0.724360000000     0.456890000000     0.0702133  
C284     C      0.822330000000     0.693680000000     0.456580000000    -0.086809   
C285     C      0.801530000000     0.360220000000     0.999810000000    -0.0867369  
C286     C      0.827180000000     0.344430000000     0.990950000000     0.0343675  
C287     C      0.853140000000     0.359730000000     0.982250000000    -0.0866449  
C288     C      0.853170000000     0.390430000000     0.983170000000     0.0702461  
C289     C      0.802160000000     0.390920000000     0.999410000000     0.0699822  
C290     C      0.826950000000     0.312040000000     0.991610000000     0.0343266  
C291     C      0.831630000000     0.296010000000     0.953060000000    -0.0865937  
C292     C      0.831120000000     0.265300000000     0.954390000000     0.0701172  
C293     C      0.822480000000     0.266320000000     0.031340000000     0.0702939  
C294     C      0.822140000000     0.297000000000     0.030960000000    -0.0867384  
C295     C      0.826070000000     0.693410000000     0.954670000000    -0.0866935  
C296     C      0.830550000000     0.677350000000     0.993230000000     0.0343613  
C297     C      0.835140000000     0.692350000000     0.032680000000    -0.0867705  
C298     C      0.834770000000     0.723040000000     0.033120000000     0.0703053  
C299     C      0.826540000000     0.724100000000     0.956070000000     0.0701558  
C300     C      0.830330000000     0.644970000000     0.992430000000     0.0342541  
C301     C      0.856070000000     0.629170000000     0.000540000000    -0.0865307  
C302     C      0.855460000000     0.598480000000     0.999740000000     0.0699833  
C303     C      0.804310000000     0.599010000000     0.984540000000     0.0701227  
C304     C      0.804300000000     0.629710000000     0.984060000000    -0.0866711  
C305     C      0.853600000000     0.501770000000     0.790520000000    -0.0852985  
C306     C      0.828030000000     0.494870000000     0.766820000000     0.0342079  
C307     C      0.802550000000     0.488030000000     0.790800000000    -0.0852586  
C308     C      0.802960000000     0.488560000000     0.836720000000     0.0702171  
C309     C      0.853450000000     0.501200000000     0.836430000000     0.0703066  
C310     C      0.827970000000     0.494770000000     0.717600000000     0.0342126  
C311     C      0.853640000000     0.488400000000     0.693820000000    -0.0853337  
C312     C      0.853420000000     0.489020000000     0.647930000000     0.0702695  
C313     C      0.802660000000     0.500590000000     0.647770000000     0.0702144  
C314     C      0.802310000000     0.501070000000     0.693710000000    -0.0851728  
C315     C      0.803880000000     0.489250000000     0.290580000000    -0.0853246  
C316     C      0.829550000000     0.495610000000     0.266800000000     0.0341605  
C317     C      0.855170000000     0.502050000000     0.290700000000    -0.0850744  
C318     C      0.854790000000     0.501680000000     0.336660000000     0.0700465  
C319     C      0.804080000000     0.489910000000     0.336470000000     0.0701843  
C320     C      0.829540000000     0.495500000000     0.217590000000     0.0341127  
C321     C      0.804020000000     0.502440000000     0.193790000000    -0.0852637  
C322     C      0.804180000000     0.501650000000     0.147890000000     0.0701388  
C323     C      0.854580000000     0.488630000000     0.147760000000     0.0699986  
C324     C      0.854980000000     0.488370000000     0.193710000000    -0.0850977  
C325     C      0.295520000000     0.822420000000     0.534570000000    -0.0866799  
C326     C      0.311190000000     0.827090000000     0.495720000000     0.0342635  
C327     C      0.295800000000     0.831690000000     0.456600000000    -0.0867028  
C328     C      0.265100000000     0.831300000000     0.456840000000     0.0700682  
C329     C      0.264820000000     0.822780000000     0.533830000000     0.0700836  
C330     C      0.343550000000     0.827220000000     0.495990000000     0.0343186  
C331     C      0.358980000000     0.853530000000     0.491000000000    -0.0866362  
C332     C      0.389670000000     0.853320000000     0.491650000000     0.0700937  
C333     C      0.389870000000     0.801510000000     0.500740000000     0.0701378  
C334     C      0.359170000000     0.801040000000     0.501160000000    -0.086716   
C335     C      0.628710000000     0.801860000000     0.493310000000    -0.086771   
C336     C      0.644120000000     0.828320000000     0.496150000000     0.0342933  
C337     C      0.628520000000     0.854670000000     0.498720000000    -0.0867987  
C338     C      0.597830000000     0.854200000000     0.498150000000     0.0701479  
C339     C      0.598010000000     0.802130000000     0.493380000000     0.0700353  
C340     C      0.676450000000     0.828430000000     0.495940000000     0.0342825  
C341     C      0.692120000000     0.831020000000     0.535210000000    -0.0866902  
C342     C      0.722830000000     0.830860000000     0.534360000000     0.0699992  
C343     C      0.722460000000     0.826210000000     0.456620000000     0.0700844  
C344     C      0.691780000000     0.825920000000     0.456380000000    -0.0868817  
C345     C      0.299230000000     0.833510000000     0.028270000000    -0.0867681  
C346     C      0.314670000000     0.828990000000     0.989190000000     0.034285   
C347     C      0.299040000000     0.824460000000     0.950240000000    -0.0865506  
C348     C      0.268320000000     0.824850000000     0.950900000000     0.0700657  
C349     C      0.268570000000     0.833070000000     0.027970000000     0.0703495  
C350     C      0.347050000000     0.828950000000     0.989290000000     0.034422   
C351     C      0.362590000000     0.803040000000     0.981210000000    -0.0866464  
C352     C      0.393270000000     0.803170000000     0.983120000000     0.0701301  
C353     C      0.393260000000     0.854230000000     0.999100000000     0.0701462  
C354     C      0.362570000000     0.854700000000     0.998480000000    -0.0868503  
C355     C      0.631740000000     0.801820000000     0.009150000000    -0.0866489  
C356     C      0.647470000000     0.827630000000     0.001230000000     0.034473   
C357     C      0.632130000000     0.853570000000     0.992550000000    -0.0868429  
C358     C      0.601440000000     0.853370000000     0.992240000000     0.0701514  
C359     C      0.601050000000     0.802220000000     0.007560000000     0.0701355  
C360     C      0.679850000000     0.827410000000     0.001020000000     0.0344066  
C361     C      0.695610000000     0.822670000000     0.039800000000    -0.0865139  
C362     C      0.726330000000     0.823010000000     0.038910000000     0.0700132  
C363     C      0.725840000000     0.831510000000     0.961910000000     0.0701675  
C364     C      0.695170000000     0.832010000000     0.961860000000    -0.0868819  
C365     C      0.490780000000     0.853960000000     0.794350000000    -0.0852153  
C366     C      0.497470000000     0.828450000000     0.770350000000     0.034159   
C367     C      0.504900000000     0.803010000000     0.794050000000    -0.0851999  
C368     C      0.504850000000     0.803300000000     0.839980000000     0.0701864  
C369     C      0.491850000000     0.853700000000     0.840250000000     0.0702065  
C370     C      0.496610000000     0.828350000000     0.721140000000     0.0341812  
C371     C      0.502180000000     0.854050000000     0.696940000000    -0.0852097  
C372     C      0.500780000000     0.853670000000     0.651060000000     0.0702913  
C373     C      0.489800000000     0.802790000000     0.651720000000     0.0702633  
C374     C      0.490100000000     0.802580000000     0.697650000000    -0.0851697  
C375     C      0.487380000000     0.802210000000     0.196950000000    -0.08516    
C376     C      0.494260000000     0.827610000000     0.221090000000     0.0341087  
C377     C      0.501630000000     0.853120000000     0.197530000000    -0.0851568  
C378     C      0.501570000000     0.852950000000     0.151610000000     0.0701748  
C379     C      0.488410000000     0.802590000000     0.151040000000     0.0701014  
C380     C      0.493840000000     0.827520000000     0.270310000000     0.0341825  
C381     C      0.499770000000     0.801770000000     0.294200000000    -0.0851444  
C382     C      0.499070000000     0.802060000000     0.340140000000     0.0701288  
C383     C      0.487970000000     0.852920000000     0.340040000000     0.0702838  
C384     C      0.487600000000     0.853220000000     0.294120000000    -0.0852697  
Cu1      Cu     0.497350000000     0.855240000000     0.995890000000     0.846844   
Cu2      Cu     0.497130000000     0.801060000000     0.995560000000     0.845013   
Cu3      Cu     0.493750000000     0.854920000000     0.495580000000     0.847104   
Cu4      Cu     0.493940000000     0.800680000000     0.495950000000     0.846281   
Cu5      Cu     0.801710000000     0.494990000000     0.992380000000     0.846341   
Cu6      Cu     0.855890000000     0.494430000000     0.991950000000     0.845797   
Cu7      Cu     0.801640000000     0.495380000000     0.491800000000     0.846949   
Cu8      Cu     0.855850000000     0.495850000000     0.492690000000     0.846236   
Cu9      Cu     0.494310000000     0.189310000000     0.992540000000     0.846109   
Cu10     Cu     0.494160000000     0.135130000000     0.992330000000     0.845803   
Cu11     Cu     0.497190000000     0.189450000000     0.492370000000     0.846347   
Cu12     Cu     0.497420000000     0.135270000000     0.492580000000     0.845756   
Cu13     Cu     0.135530000000     0.496220000000     0.996380000000     0.847081   
Cu14     Cu     0.189740000000     0.494680000000     0.997180000000     0.846657   
Cu15     Cu     0.135470000000     0.494100000000     0.496870000000     0.847187   
Cu16     Cu     0.189680000000     0.495740000000     0.496500000000     0.846807   
Cu17     Cu     0.830720000000     0.826880000000     0.038730000000     0.844578   
Cu18     Cu     0.829570000000     0.828320000000     0.957630000000     0.848517   
Cu19     Cu     0.827090000000     0.828940000000     0.534630000000     0.847387   
Cu20     Cu     0.826350000000     0.828180000000     0.453490000000     0.846615   
Cu21     Cu     0.827560000000     0.160960000000     0.956090000000     0.849059   
Cu22     Cu     0.826710000000     0.162590000000     0.037210000000     0.844934   
Cu23     Cu     0.830550000000     0.162730000000     0.451290000000     0.845598   
Cu24     Cu     0.829940000000     0.162750000000     0.532350000000     0.846518   
Cu25     Cu     0.161500000000     0.161710000000     0.034920000000     0.84717    
Cu26     Cu     0.161000000000     0.163420000000     0.953820000000     0.846064   
Cu27     Cu     0.164310000000     0.162090000000     0.536790000000     0.844592   
Cu28     Cu     0.164540000000     0.161890000000     0.455720000000     0.847683   
Cu29     Cu     0.163930000000     0.827760000000     0.950540000000     0.844223   
Cu30     Cu     0.164880000000     0.828950000000     0.031650000000     0.848797   
Cu31     Cu     0.161020000000     0.828230000000     0.453970000000     0.846537   
Cu32     Cu     0.160770000000     0.827350000000     0.535100000000     0.846907   
H1       H      0.174010000000     0.973060000000     0.565660000000     0.0505294  
H2       H      0.172040000000     0.920050000000     0.564800000000     0.026198   
H3       H      0.151400000000     0.920990000000     0.427560000000     0.0261635  
H4       H      0.150750000000     0.973910000000     0.427770000000     0.0505422  
H5       H      0.149630000000     0.016480000000     0.565010000000     0.0506412  
H6       H      0.151490000000     0.069470000000     0.564670000000     0.0263243  
H7       H      0.176050000000     0.069090000000     0.428890000000     0.0262255  
H8       H      0.176820000000     0.016140000000     0.428740000000     0.0505143  
H9       H      0.174180000000     0.017800000000     0.920400000000     0.0505332  
H10      H      0.172230000000     0.070850000000     0.922120000000     0.0261981  
H11      H      0.150760000000     0.068880000000     0.059030000000     0.0261014  
H12      H      0.150010000000     0.016030000000     0.057930000000     0.050576   
H13      H      0.176370000000     0.974270000000     0.057140000000     0.0504582  
H14      H      0.175650000000     0.921430000000     0.057120000000     0.0260919  
H15      H      0.152710000000     0.920730000000     0.920710000000     0.0261739  
H16      H      0.150720000000     0.973810000000     0.920190000000     0.0505671  
H17      H      0.975470000000     0.149910000000     0.562760000000     0.050581   
H18      H      0.922480000000     0.151100000000     0.561600000000     0.0263096  
H19      H      0.923460000000     0.173970000000     0.425150000000     0.0263116  
H20      H      0.976430000000     0.175290000000     0.425740000000     0.0505439  
H21      H      0.018350000000     0.175460000000     0.563270000000     0.0504754  
H22      H      0.071370000000     0.174160000000     0.563620000000     0.0262568  
H23      H      0.072030000000     0.150760000000     0.427370000000     0.02636    
H24      H      0.019080000000     0.149550000000     0.426460000000     0.0506203  
H25      H      0.972880000000     0.174800000000     0.065970000000     0.0505235  
H26      H      0.919830000000     0.173340000000     0.065880000000     0.0260726  
H27      H      0.919810000000     0.150140000000     0.929560000000     0.026127   
H28      H      0.972650000000     0.148860000000     0.929130000000     0.050583   
H29      H      0.015120000000     0.174140000000     0.928110000000     0.0504469  
H30      H      0.068040000000     0.172750000000     0.927480000000     0.0259817  
H31      H      0.069110000000     0.151750000000     0.064580000000     0.026108   
H32      H      0.016140000000     0.150400000000     0.065840000000     0.0505808  
H33      H      0.972340000000     0.841660000000     0.561410000000     0.0505543  
H34      H      0.919480000000     0.840220000000     0.561210000000     0.026092   
H35      H      0.919320000000     0.817390000000     0.424760000000     0.0260723  
H36      H      0.972340000000     0.816020000000     0.424430000000     0.0505414  
H37      H      0.015550000000     0.840210000000     0.424240000000     0.0505335  
H38      H      0.068510000000     0.838740000000     0.425050000000     0.0260921  
H39      H      0.067920000000     0.818210000000     0.562310000000     0.0259586  
H40      H      0.015010000000     0.816880000000     0.562150000000     0.0504188  
H41      H      0.839340000000     0.974370000000     0.561200000000     0.0505323  
H42      H      0.837300000000     0.921490000000     0.561380000000     0.0261032  
H43      H      0.817360000000     0.921080000000     0.423910000000     0.0261651  
H44      H      0.816780000000     0.974120000000     0.423040000000     0.0505417  
H45      H      0.842410000000     0.016790000000     0.423890000000     0.0506317  
H46      H      0.841940000000     0.069810000000     0.424060000000     0.026313   
H47      H      0.816780000000     0.070270000000     0.559600000000     0.0262526  
H48      H      0.814600000000     0.017360000000     0.559890000000     0.0505111  
H49      H      0.975200000000     0.840570000000     0.926210000000     0.0505434  
H50      H      0.922210000000     0.839220000000     0.927590000000     0.0261725  
H51      H      0.923550000000     0.816760000000     0.064180000000     0.0261822  
H52      H      0.976470000000     0.815470000000     0.063360000000     0.0505034  
H53      H      0.019300000000     0.840530000000     0.062610000000     0.0505815  
H54      H      0.072260000000     0.839130000000     0.061340000000     0.0262348  
H55      H      0.071080000000     0.816780000000     0.924720000000     0.0261275  
H56      H      0.018120000000     0.815540000000     0.925400000000     0.0504464  
H57      H      0.816640000000     0.016610000000     0.070070000000     0.0505623  
H58      H      0.817450000000     0.069720000000     0.068590000000     0.026161   
H59      H      0.839010000000     0.068450000000     0.931680000000     0.0260918  
H60      H      0.840900000000     0.015650000000     0.932560000000     0.0505598  
H61      H      0.815390000000     0.973390000000     0.933130000000     0.0504892  
H62      H      0.817300000000     0.920590000000     0.932800000000     0.0260998  
H63      H      0.840310000000     0.919990000000     0.069180000000     0.026151   
H64      H      0.841100000000     0.973120000000     0.070050000000     0.0506217  
H65      H      0.205740000000     0.641870000000     0.480370000000     0.0528804  
H66      H      0.206660000000     0.588460000000     0.482780000000     0.0264305  
H67      H      0.113940000000     0.586860000000     0.507020000000     0.0264261  
H68      H      0.112720000000     0.640420000000     0.506080000000     0.0528732  
H69      H      0.167410000000     0.681600000000     0.423180000000     0.05291    
H70      H      0.167460000000     0.735170000000     0.423710000000     0.0264217  
H71      H      0.151320000000     0.734890000000     0.562490000000     0.0264453  
H72      H      0.150290000000     0.681450000000     0.562410000000     0.0529109  
H73      H      0.176050000000     0.308220000000     0.564920000000     0.0528836  
H74      H      0.175040000000     0.254720000000     0.564820000000     0.0265297  
H75      H      0.156240000000     0.254770000000     0.426800000000     0.0264918  
H76      H      0.156240000000     0.308280000000     0.426500000000     0.0528802  
H77      H      0.212320000000     0.349440000000     0.508480000000     0.0527208  
H78      H      0.211180000000     0.403010000000     0.508240000000     0.0263534  
H79      H      0.118390000000     0.401310000000     0.484630000000     0.0264802  
H80      H      0.119220000000     0.347890000000     0.483370000000     0.05291    
H81      H      0.171700000000     0.682820000000     0.065100000000     0.0530679  
H82      H      0.170850000000     0.736370000000     0.063570000000     0.0265632  
H83      H      0.160010000000     0.734740000000     0.923650000000     0.0264767  
H84      H      0.160120000000     0.681270000000     0.924650000000     0.0530222  
H85      H      0.212480000000     0.641030000000     0.004580000000     0.0529207  
H86      H      0.211410000000     0.587450000000     0.004450000000     0.0264619  
H87      H      0.117940000000     0.589040000000     0.987720000000     0.0265744  
H88      H      0.118660000000     0.642480000000     0.986740000000     0.0530824  
H89      H      0.168200000000     0.308070000000     0.068960000000     0.0528487  
H90      H      0.168340000000     0.254500000000     0.067250000000     0.0264353  
H91      H      0.151660000000     0.256130000000     0.928640000000     0.0265071  
H92      H      0.150550000000     0.309560000000     0.929910000000     0.0529467  
H93      H      0.206280000000     0.348510000000     0.011460000000     0.0528924  
H94      H      0.207030000000     0.401950000000     0.009650000000     0.0264297  
H95      H      0.114040000000     0.403420000000     0.987810000000     0.0263926  
H96      H      0.112970000000     0.349870000000     0.988180000000     0.0529525  
H97      H      0.209250000000     0.482980000000     0.778890000000     0.050438   
H98      H      0.208940000000     0.484340000000     0.858230000000     0.0261286  
H99      H      0.117450000000     0.505990000000     0.857820000000     0.0260912  
H100     H      0.117350000000     0.507230000000     0.778640000000     0.0503907  
H101     H      0.117590000000     0.481720000000     0.714890000000     0.0504419  
H102     H      0.117560000000     0.483100000000     0.635670000000     0.0261772  
H103     H      0.208540000000     0.506820000000     0.635190000000     0.0262074  
H104     H      0.208910000000     0.508050000000     0.714490000000     0.0504851  
H105     H      0.116160000000     0.508210000000     0.214600000000     0.0505066  
H106     H      0.116480000000     0.507040000000     0.135290000000     0.0261074  
H107     H      0.207650000000     0.484110000000     0.135600000000     0.0260165  
H108     H      0.207690000000     0.482510000000     0.214720000000     0.0504572  
H109     H      0.207960000000     0.507320000000     0.278730000000     0.0504166  
H110     H      0.207930000000     0.505620000000     0.357880000000     0.0259731  
H111     H      0.116340000000     0.484420000000     0.358160000000     0.026024   
H112     H      0.115960000000     0.483370000000     0.278880000000     0.0505013  
H113     H      0.350780000000     0.207920000000     0.480150000000     0.0526953  
H114     H      0.404260000000     0.207980000000     0.479670000000     0.0264463  
H115     H      0.404910000000     0.116010000000     0.509720000000     0.0264723  
H116     H      0.351430000000     0.115680000000     0.511770000000     0.0527791  
H117     H      0.310760000000     0.151330000000     0.565420000000     0.0527111  
H118     H      0.257220000000     0.151770000000     0.565350000000     0.0264588  
H119     H      0.257090000000     0.171280000000     0.427550000000     0.0265405  
H120     H      0.310530000000     0.171880000000     0.427210000000     0.0527994  
H121     H      0.643640000000     0.116840000000     0.474530000000     0.0527696  
H122     H      0.590150000000     0.116760000000     0.475940000000     0.0264994  
H123     H      0.589930000000     0.208830000000     0.505310000000     0.0264609  
H124     H      0.643420000000     0.209190000000     0.505470000000     0.0526391  
H125     H      0.683750000000     0.173550000000     0.559150000000     0.0527707  
H126     H      0.737220000000     0.173030000000     0.559400000000     0.026542   
H127     H      0.737780000000     0.153210000000     0.421710000000     0.0264596  
H128     H      0.684260000000     0.152680000000     0.421050000000     0.0527075  
H129     H      0.348140000000     0.208850000000     0.976530000000     0.0526216  
H130     H      0.401630000000     0.208520000000     0.977190000000     0.0264427  
H131     H      0.401330000000     0.116450000000     0.006590000000     0.0266171  
H132     H      0.347850000000     0.116510000000     0.007510000000     0.052738   
H133     H      0.307150000000     0.173350000000     0.923420000000     0.0527309  
H134     H      0.253650000000     0.172930000000     0.924280000000     0.0264454  
H135     H      0.254380000000     0.153000000000     0.061940000000     0.0264768  
H136     H      0.307850000000     0.152370000000     0.061480000000     0.0527591  
H137     H      0.680360000000     0.170790000000     0.063390000000     0.0527892  
H138     H      0.733830000000     0.170170000000     0.064140000000     0.0263738  
H139     H      0.734940000000     0.152910000000     0.925680000000     0.0264555  
H140     H      0.681430000000     0.152510000000     0.924490000000     0.0528458  
H141     H      0.640380000000     0.115650000000     0.977720000000     0.052825   
H142     H      0.586890000000     0.115940000000     0.978100000000     0.0264758  
H143     H      0.587060000000     0.207980000000     0.007780000000     0.026444   
H144     H      0.640550000000     0.207950000000     0.008940000000     0.0527125  
H145     H      0.483380000000     0.116760000000     0.773950000000     0.0505166  
H146     H      0.483570000000     0.116880000000     0.853270000000     0.0262543  
H147     H      0.506740000000     0.208010000000     0.854130000000     0.0263026  
H148     H      0.509050000000     0.208270000000     0.774910000000     0.0504925  
H149     H      0.484190000000     0.208310000000     0.710220000000     0.0504905  
H150     H      0.486160000000     0.208130000000     0.630990000000     0.0263072  
H151     H      0.509480000000     0.117040000000     0.631430000000     0.0262384  
H152     H      0.510000000000     0.116840000000     0.710750000000     0.0504867  
H153     H      0.481770000000     0.207770000000     0.210640000000     0.0504656  
H154     H      0.482560000000     0.207590000000     0.131350000000     0.0262372  
H155     H      0.505610000000     0.116430000000     0.131020000000     0.0262834  
H156     H      0.507360000000     0.116230000000     0.210270000000     0.0504852  
H157     H      0.482480000000     0.116280000000     0.274860000000     0.0504839  
H158     H      0.484560000000     0.116550000000     0.354110000000     0.026242   
H159     H      0.507480000000     0.207740000000     0.353360000000     0.0262702  
H160     H      0.507930000000     0.207850000000     0.274070000000     0.0504767  
H161     H      0.877000000000     0.349710000000     0.499490000000     0.0530411  
H162     H      0.876380000000     0.403220000000     0.498830000000     0.0264111  
H163     H      0.782750000000     0.402450000000     0.484170000000     0.0264042  
H164     H      0.783010000000     0.348940000000     0.483580000000     0.05292    
H165     H      0.838620000000     0.309110000000     0.561280000000     0.0530012  
H166     H      0.838380000000     0.255580000000     0.561130000000     0.0265451  
H167     H      0.822610000000     0.255440000000     0.422250000000     0.0265791  
H168     H      0.821990000000     0.308940000000     0.421930000000     0.0529986  
H169     H      0.780900000000     0.641550000000     0.481660000000     0.0527555  
H170     H      0.781590000000     0.588060000000     0.481080000000     0.0264456  
H171     H      0.874100000000     0.588710000000     0.507150000000     0.0265263  
H172     H      0.873700000000     0.642210000000     0.509190000000     0.052934   
H173     H      0.835100000000     0.682470000000     0.565360000000     0.0528523  
H174     H      0.834330000000     0.736030000000     0.564820000000     0.0264454  
H175     H      0.819040000000     0.735520000000     0.425830000000     0.0264658  
H176     H      0.818850000000     0.682070000000     0.425900000000     0.0528971  
H177     H      0.873370000000     0.348010000000     0.975430000000     0.0528678  
H178     H      0.873800000000     0.401510000000     0.976550000000     0.0264922  
H179     H      0.781790000000     0.402390000000     0.006280000000     0.0265446  
H180     H      0.781090000000     0.348900000000     0.006690000000     0.0527748  
H181     H      0.835380000000     0.307150000000     0.922070000000     0.0528096  
H182     H      0.834710000000     0.253590000000     0.923800000000     0.0264128  
H183     H      0.818850000000     0.255470000000     0.062610000000     0.0264146  
H184     H      0.818500000000     0.308900000000     0.061350000000     0.0528449  
H185     H      0.838620000000     0.680420000000     0.063080000000     0.0528938  
H186     H      0.838230000000     0.733880000000     0.064450000000     0.0263781  
H187     H      0.823090000000     0.735820000000     0.925450000000     0.026465   
H188     H      0.822500000000     0.682290000000     0.923610000000     0.0528725  
H189     H      0.876560000000     0.640480000000     0.007120000000     0.0528615  
H190     H      0.875910000000     0.586980000000     0.006030000000     0.0266156  
H191     H      0.783640000000     0.587940000000     0.978180000000     0.0264875  
H192     H      0.784010000000     0.641450000000     0.977770000000     0.0527997  
H193     H      0.782350000000     0.481840000000     0.774480000000     0.050532   
H194     H      0.782740000000     0.483120000000     0.853770000000     0.0262371  
H195     H      0.873760000000     0.506650000000     0.853210000000     0.0261591  
H196     H      0.873720000000     0.508010000000     0.774000000000     0.0504486  
H197     H      0.873910000000     0.482570000000     0.710260000000     0.0504062  
H198     H      0.873820000000     0.484010000000     0.631090000000     0.0260953  
H199     H      0.782320000000     0.505620000000     0.630780000000     0.0261753  
H200     H      0.782010000000     0.506820000000     0.710110000000     0.0505069  
H201     H      0.875470000000     0.507790000000     0.274280000000     0.0505136  
H202     H      0.875100000000     0.506790000000     0.353670000000     0.0262327  
H203     H      0.783680000000     0.484850000000     0.353280000000     0.0261687  
H204     H      0.783640000000     0.483340000000     0.274120000000     0.0504266  
H205     H      0.783940000000     0.508880000000     0.210240000000     0.0504588  
H206     H      0.783900000000     0.507160000000     0.131040000000     0.0262552  
H207     H      0.874760000000     0.482970000000     0.130790000000     0.0263158  
H208     H      0.875140000000     0.482160000000     0.210140000000     0.0505349  
H209     H      0.307450000000     0.835330000000     0.426000000000     0.0529711  
H210     H      0.253940000000     0.834860000000     0.425790000000     0.0265094  
H211     H      0.253440000000     0.819240000000     0.564700000000     0.0265165  
H212     H      0.306950000000     0.818820000000     0.565370000000     0.0529674  
H213     H      0.347360000000     0.874160000000     0.486990000000     0.0529759  
H214     H      0.400870000000     0.874200000000     0.487840000000     0.0264684  
H215     H      0.401220000000     0.780720000000     0.504610000000     0.026394   
H216     H      0.347710000000     0.780320000000     0.505050000000     0.0528528  
H217     H      0.640000000000     0.875490000000     0.500860000000     0.0531626  
H218     H      0.586490000000     0.875120000000     0.500100000000     0.0265295  
H219     H      0.586820000000     0.781140000000     0.491230000000     0.026509   
H220     H      0.640330000000     0.781120000000     0.491200000000     0.0530298  
H221     H      0.680700000000     0.832990000000     0.566340000000     0.0531306  
H222     H      0.734250000000     0.832830000000     0.565510000000     0.0265777  
H223     H      0.733570000000     0.824280000000     0.425210000000     0.0265654  
H224     H      0.680100000000     0.823890000000     0.425470000000     0.0531328  
H225     H      0.310500000000     0.820930000000     0.919450000000     0.0528046  
H226     H      0.256920000000     0.821390000000     0.920020000000     0.0263979  
H227     H      0.257400000000     0.836500000000     0.059050000000     0.0264429  
H228     H      0.310820000000     0.837040000000     0.058960000000     0.0528728  
H229     H      0.351070000000     0.782730000000     0.974160000000     0.0527648  
H230     H      0.404560000000     0.782590000000     0.976990000000     0.0264635  
H231     H      0.404520000000     0.874690000000     0.006230000000     0.0265813  
H232     H      0.351040000000     0.875090000000     0.004910000000     0.0529511  
H233     H      0.643800000000     0.873900000000     0.986270000000     0.0529178  
H234     H      0.590330000000     0.873960000000     0.985480000000     0.0265258  
H235     H      0.589610000000     0.781700000000     0.013520000000     0.02648    
H236     H      0.643110000000     0.781370000000     0.015810000000     0.0527716  
H237     H      0.684250000000     0.819080000000     0.070660000000     0.0527875  
H238     H      0.737830000000     0.819430000000     0.069680000000     0.0264121  
H239     H      0.736900000000     0.835050000000     0.930780000000     0.0264479  
H240     H      0.683490000000     0.835690000000     0.931290000000     0.0528822  
H241     H      0.511060000000     0.782880000000     0.777490000000     0.0504649  
H242     H      0.510590000000     0.783070000000     0.856790000000     0.0261703  
H243     H      0.486410000000     0.873930000000     0.857270000000     0.0262667  
H244     H      0.484200000000     0.874070000000     0.778110000000     0.0505009  
H245     H      0.508040000000     0.874440000000     0.713020000000     0.0504124  
H246     H      0.505270000000     0.874070000000     0.633870000000     0.0261076  
H247     H      0.484720000000     0.782320000000     0.635090000000     0.0260546  
H248     H      0.484840000000     0.782250000000     0.714370000000     0.05041    
H249     H      0.507890000000     0.873190000000     0.214190000000     0.0504736  
H250     H      0.507410000000     0.873200000000     0.134950000000     0.0262711  
H251     H      0.482960000000     0.782420000000     0.133880000000     0.0262231  
H252     H      0.480810000000     0.782070000000     0.213130000000     0.0504487  
H253     H      0.505420000000     0.781430000000     0.277820000000     0.0504242  
H254     H      0.503840000000     0.781640000000     0.357090000000     0.026096   
H255     H      0.483090000000     0.873350000000     0.356910000000     0.0260888  
H256     H      0.482070000000     0.873570000000     0.277670000000     0.0504305  
N1       N      0.161740000000     0.916570000000     0.496130000000    -0.192757   
N2       N      0.163750000000     0.073220000000     0.496750000000    -0.192709   
N3       N      0.161610000000     0.073800000000     0.990730000000    -0.192738   
N4       N      0.164050000000     0.917140000000     0.988980000000    -0.192786   
N5       N      0.919020000000     0.162520000000     0.493300000000    -0.192597   
N6       N      0.075650000000     0.162470000000     0.495540000000    -0.192611   
N7       N      0.915890000000     0.161840000000     0.997720000000    -0.192852   
N8       N      0.072500000000     0.162210000000     0.995940000000    -0.192865   
N9       N      0.915480000000     0.828720000000     0.493000000000    -0.192828   
N10      N      0.072140000000     0.828490000000     0.493730000000    -0.192855   
N11      N      0.827240000000     0.917340000000     0.492690000000    -0.192775   
N12      N      0.829450000000     0.073980000000     0.491830000000    -0.19275    
N13      N      0.918930000000     0.828010000000     0.995960000000    -0.192713   
N14      N      0.075610000000     0.827960000000     0.992960000000    -0.192669   
N15      N      0.828030000000     0.073020000000     0.000010000000    -0.192703   
N16      N      0.829030000000     0.916360000000     0.000900000000    -0.192786   
N17      N      0.160370000000     0.583690000000     0.495080000000    -0.192556   
N18      N      0.159510000000     0.739000000000     0.493120000000    -0.19264    
N19      N      0.165540000000     0.250780000000     0.495830000000    -0.192573   
N20      N      0.164730000000     0.406130000000     0.496500000000    -0.192633   
N21      N      0.165350000000     0.739550000000     0.993530000000    -0.192653   
N22      N      0.164630000000     0.584250000000     0.996120000000    -0.19263    
N23      N      0.160120000000     0.251340000000     0.997840000000    -0.192641   
N24      N      0.160600000000     0.406660000000     0.998550000000    -0.192639   
N25      N      0.163180000000     0.495120000000     0.863930000000    -0.192798   
N26      N      0.163030000000     0.495000000000     0.629530000000    -0.192736   
N27      N      0.162080000000     0.495630000000     0.129570000000    -0.19298    
N28      N      0.162150000000     0.494960000000     0.363900000000    -0.192945   
N29      N      0.408550000000     0.162000000000     0.494560000000    -0.192694   
N30      N      0.253190000000     0.161530000000     0.496470000000    -0.192648   
N31      N      0.586070000000     0.162770000000     0.490720000000    -0.192673   
N32      N      0.741470000000     0.163100000000     0.490590000000    -0.192604   
N33      N      0.405450000000     0.162480000000     0.991910000000    -0.192553   
N34      N      0.250050000000     0.162960000000     0.993150000000    -0.192571   
N35      N      0.738350000000     0.161540000000     0.994970000000    -0.192671   
N36      N      0.583010000000     0.161970000000     0.992930000000    -0.192697   
N37      N      0.495080000000     0.162430000000     0.859610000000    -0.192687   
N38      N      0.497830000000     0.162570000000     0.625300000000    -0.192654   
N39      N      0.494090000000     0.162020000000     0.125270000000    -0.192676   
N40      N      0.496080000000     0.162150000000     0.359640000000    -0.192616   
N41      N      0.829530000000     0.406820000000     0.491510000000    -0.192663   
N42      N      0.830490000000     0.251530000000     0.491710000000    -0.192579   
N43      N      0.827890000000     0.584410000000     0.493970000000    -0.192649   
N44      N      0.826690000000     0.739750000000     0.495310000000    -0.192612   
N45      N      0.827850000000     0.405930000000     0.991500000000    -0.192634   
N46      N      0.826810000000     0.250560000000     0.993310000000    -0.192666   
N47      N      0.830640000000     0.738820000000     0.995070000000    -0.192652   
N48      N      0.829730000000     0.583490000000     0.992130000000    -0.19262    
N49      N      0.828280000000     0.494850000000     0.859380000000    -0.192837   
N50      N      0.828090000000     0.494900000000     0.625050000000    -0.192746   
N51      N      0.829380000000     0.495880000000     0.359390000000    -0.192682   
N52      N      0.829310000000     0.494990000000     0.125000000000    -0.192629   
N53      N      0.249700000000     0.827070000000     0.495220000000    -0.192641   
N54      N      0.405030000000     0.827470000000     0.496210000000    -0.192574   
N55      N      0.582660000000     0.828120000000     0.495640000000    -0.192555   
N56      N      0.737910000000     0.828560000000     0.495330000000    -0.192565   
N57      N      0.253190000000     0.828900000000     0.989550000000    -0.192651   
N58      N      0.408500000000     0.828600000000     0.991860000000    -0.192605   
N59      N      0.585990000000     0.827830000000     0.999290000000    -0.192595   
N60      N      0.741340000000     0.827230000000     0.000190000000    -0.192425   
N61      N      0.498480000000     0.828480000000     0.862930000000    -0.192778   
N62      N      0.494910000000     0.828180000000     0.628590000000    -0.192792   
N63      N      0.495250000000     0.827820000000     0.128510000000    -0.192717   
N64      N      0.493510000000     0.827510000000     0.362900000000    -0.192706   
O1       O      0.541890000000     0.852410000000     0.995240000000    -0.397727   
O2       O      0.452790000000     0.852780000000     0.996470000000    -0.397894   
O3       O      0.497860000000     0.852400000000     0.062540000000    -0.397665   
O4       O      0.496750000000     0.852770000000     0.929200000000    -0.397634   
O5       O      0.499770000000     0.803880000000     0.928980000000    -0.397199   
O6       O      0.494450000000     0.803540000000     0.062160000000    -0.397219   
O7       O      0.452640000000     0.803920000000     0.991540000000    -0.397262   
O8       O      0.541640000000     0.803520000000     0.999580000000    -0.397222   
O9       O      0.449190000000     0.852120000000     0.496250000000    -0.397718   
O10      O      0.538320000000     0.852450000000     0.494890000000    -0.397597   
O11      O      0.492930000000     0.852110000000     0.428950000000    -0.397927   
O12      O      0.494660000000     0.852470000000     0.562260000000    -0.397881   
O13      O      0.493600000000     0.803500000000     0.562610000000    -0.397666   
O14      O      0.494320000000     0.803150000000     0.429200000000    -0.397441   
O15      O      0.538490000000     0.803480000000     0.496060000000    -0.397683   
O16      O      0.449360000000     0.803150000000     0.495920000000    -0.397766   
O17      O      0.804820000000     0.539510000000     0.990090000000    -0.397556   
O18      O      0.803910000000     0.450420000000     0.994540000000    -0.397695   
O19      O      0.804660000000     0.496540000000     0.059000000000    -0.397456   
O20      O      0.804070000000     0.493410000000     0.925730000000    -0.39769    
O21      O      0.852970000000     0.496110000000     0.925340000000    -0.397618   
O22      O      0.853500000000     0.492870000000     0.058640000000    -0.397219   
O23      O      0.852760000000     0.449910000000     0.989540000000    -0.397501   
O24      O      0.853710000000     0.539000000000     0.994300000000    -0.397468   
O25      O      0.804660000000     0.450840000000     0.492320000000    -0.397687   
O26      O      0.803880000000     0.539960000000     0.490980000000    -0.397903   
O27      O      0.804650000000     0.494690000000     0.425260000000    -0.398242   
O28      O      0.803900000000     0.496080000000     0.558600000000    -0.397261   
O29      O      0.852850000000     0.494430000000     0.559190000000    -0.398323   
O30      O      0.853560000000     0.497170000000     0.425870000000    -0.39691    
O31      O      0.852780000000     0.540390000000     0.494710000000    -0.397516   
O32      O      0.853630000000     0.451280000000     0.491180000000    -0.397644   
O33      O      0.538830000000     0.186520000000     0.995130000000    -0.397589   
O34      O      0.449770000000     0.186790000000     0.989900000000    -0.397492   
O35      O      0.492530000000     0.186550000000     0.059170000000    -0.397552   
O36      O      0.496130000000     0.186770000000     0.925900000000    -0.397507   
O37      O      0.492850000000     0.137900000000     0.925670000000    -0.397352   
O38      O      0.495550000000     0.137670000000     0.059010000000    -0.397419   
O39      O      0.449620000000     0.137910000000     0.994320000000    -0.39748    
O40      O      0.538710000000     0.137650000000     0.990340000000    -0.397455   
O41      O      0.452650000000     0.186600000000     0.490980000000    -0.397615   
O42      O      0.541750000000     0.187000000000     0.493810000000    -0.397727   
O43      O      0.498200000000     0.186690000000     0.425700000000    -0.397468   
O44      O      0.496140000000     0.186900000000     0.559040000000    -0.397674   
O45      O      0.499510000000     0.138040000000     0.559190000000    -0.397371   
O46      O      0.495240000000     0.137800000000     0.425940000000    -0.397345   
O47      O      0.541930000000     0.138120000000     0.489380000000    -0.397416   
O48      O      0.452900000000     0.137730000000     0.495780000000    -0.3975     
O49      O      0.139210000000     0.540600000000     0.995890000000    -0.398573   
O50      O      0.137100000000     0.451490000000     0.996630000000    -0.396875   
O51      O      0.137850000000     0.496620000000     0.063170000000    -0.397425   
O52      O      0.138480000000     0.496150000000     0.929830000000    -0.398503   
O53      O      0.187410000000     0.494210000000     0.930370000000    -0.397252   
O54      O      0.186790000000     0.494780000000     0.063710000000    -0.398544   
O55      O      0.186050000000     0.450290000000     0.997970000000    -0.398497   
O56      O      0.188160000000     0.539420000000     0.996910000000    -0.39687    
O57      O      0.139240000000     0.449730000000     0.495910000000    -0.398641   
O58      O      0.136970000000     0.538820000000     0.497600000000    -0.397029   
O59      O      0.137850000000     0.494350000000     0.430190000000    -0.397985   
O60      O      0.138380000000     0.493510000000     0.563530000000    -0.397823   
O61      O      0.187260000000     0.496560000000     0.563190000000    -0.397778   
O62      O      0.186820000000     0.495260000000     0.429870000000    -0.398089   
O63      O      0.185900000000     0.540110000000     0.495120000000    -0.398575   
O64      O      0.188180000000     0.451000000000     0.497750000000    -0.39666    
O65      O      0.830920000000     0.782450000000     0.033220000000    -0.397811   
O66      O      0.830780000000     0.871640000000     0.036340000000    -0.396121   
O67      O      0.785990000000     0.826690000000     0.035910000000    -0.39632    
O68      O      0.875160000000     0.826790000000     0.033650000000    -0.397738   
O69      O      0.874260000000     0.829020000000     0.960450000000    -0.397168   
O70      O      0.785160000000     0.827900000000     0.962660000000    -0.398728   
O71      O      0.828790000000     0.872670000000     0.963120000000    -0.39919    
O72      O      0.829960000000     0.783650000000     0.959970000000    -0.397576   
O73      O      0.827340000000     0.784260000000     0.531380000000    -0.397153   
O74      O      0.827220000000     0.873400000000     0.529960000000    -0.398353   
O75      O      0.782430000000     0.828900000000     0.531350000000    -0.397353   
O76      O      0.871510000000     0.829300000000     0.530070000000    -0.398743   
O77      O      0.871040000000     0.827770000000     0.456810000000    -0.396922   
O78      O      0.781890000000     0.828310000000     0.458090000000    -0.398245   
O79      O      0.826370000000     0.872850000000     0.456680000000    -0.397118   
O80      O      0.826010000000     0.783730000000     0.458140000000    -0.398503   
O81      O      0.827520000000     0.205680000000     0.958270000000    -0.397208   
O82      O      0.828000000000     0.116590000000     0.961850000000    -0.398803   
O83      O      0.782920000000     0.160660000000     0.959220000000    -0.397817   
O84      O      0.871930000000     0.160950000000     0.960720000000    -0.399456   
O85      O      0.871440000000     0.162940000000     0.033950000000    -0.396324   
O86      O      0.782230000000     0.162500000000     0.032450000000    -0.397697   
O87      O      0.826740000000     0.117850000000     0.035100000000    -0.396427   
O88      O      0.826380000000     0.206980000000     0.031500000000    -0.398262   
O89      O      0.829250000000     0.207270000000     0.455190000000    -0.397711   
O90      O      0.831830000000     0.118170000000     0.455270000000    -0.397409   
O91      O      0.785930000000     0.161430000000     0.454580000000    -0.397091   
O92      O      0.875060000000     0.164080000000     0.455990000000    -0.397367   
O93      O      0.874510000000     0.161020000000     0.529120000000    -0.397469   
O94      O      0.785470000000     0.164460000000     0.527710000000    -0.39791    
O95      O      0.828170000000     0.118220000000     0.528350000000    -0.39771    
O96      O      0.831630000000     0.207300000000     0.528380000000    -0.39746    
O97      O      0.161880000000     0.206450000000     0.032810000000    -0.396583   
O98      O      0.160900000000     0.117320000000     0.029050000000    -0.398188   
O99      O      0.206030000000     0.161300000000     0.030270000000    -0.397843   
O100     O      0.116960000000     0.161840000000     0.031800000000    -0.398042   
O101     O      0.116440000000     0.162730000000     0.958510000000    -0.397247   
O102     O      0.205590000000     0.164410000000     0.957140000000    -0.397381   
O103     O      0.162130000000     0.118710000000     0.955810000000    -0.396768   
O104     O      0.159910000000     0.207780000000     0.959620000000    -0.398529   
O105     O      0.166280000000     0.206600000000     0.532600000000    -0.397541   
O106     O      0.162370000000     0.117540000000     0.533080000000    -0.39741    
O107     O      0.208900000000     0.160190000000     0.533020000000    -0.39678    
O108     O      0.119760000000     0.164010000000     0.532520000000    -0.396816   
O109     O      0.120010000000     0.160660000000     0.459410000000    -0.398024   
O110     O      0.209020000000     0.163100000000     0.459870000000    -0.398363   
O111     O      0.165770000000     0.117350000000     0.459980000000    -0.397726   
O112     O      0.163410000000     0.206470000000     0.459460000000    -0.397583   
O113     O      0.163150000000     0.872500000000     0.953250000000    -0.396156   
O114     O      0.164490000000     0.783310000000     0.955730000000    -0.397855   
O115     O      0.119460000000     0.827000000000     0.955420000000    -0.397636   
O116     O      0.208640000000     0.828220000000     0.953580000000    -0.396461   
O117     O      0.209290000000     0.829070000000     0.026850000000    -0.398852   
O118     O      0.120220000000     0.829170000000     0.028620000000    -0.397382   
O119     O      0.165020000000     0.784270000000     0.028980000000    -0.397403   
O120     O      0.165110000000     0.873340000000     0.026470000000    -0.398847   
O121     O      0.161150000000     0.783530000000     0.457130000000    -0.396781   
O122     O      0.160730000000     0.872690000000     0.458750000000    -0.398198   
O123     O      0.205580000000     0.828390000000     0.458300000000    -0.397681   
O124     O      0.116470000000     0.828410000000     0.457470000000    -0.397823   
O125     O      0.116210000000     0.828100000000     0.530770000000    -0.397554   
O126     O      0.205330000000     0.826260000000     0.531500000000    -0.397614   
O127     O      0.161990000000     0.872020000000     0.532010000000    -0.397063   
O128     O      0.159570000000     0.782940000000     0.530370000000    -0.398592   


