data_structure

_audit_creation_method RASPA-1.0
_audit_creation_date 2023-6-5
_audit_author_name 'Poobodin Mano'

_cell_length_a    49.7189
_cell_length_b    49.7284
_cell_length_c    29.7638
_cell_angle_alpha 89.9753
_cell_angle_beta  90.0249
_cell_angle_gamma 119.985
_cell_volume      63739.8

_symmetry_cell_setting          triclinic
_symmetry_space_group_name_Hall 'P 1'
_symmetry_space_group_name_H-M  'P 1'
_symmetry_Int_Tables_number     1

_symmetry_equiv_pos_as_xyz 'x,y,z'

loop_
_atom_site_label
_atom_site_type_symbol
_atom_site_fract_x
_atom_site_fract_y
_atom_site_fract_z
_atom_site_charge
C1       C      0.890300000000     0.692440000000     0.662360000000     0.406419   
C2       C      0.771350000000     0.636950000000     0.612810000000     0.406275   
C3       C      0.815340000000     0.662420000000     0.723900000000     0.405678   
C4       C      0.846430000000     0.667150000000     0.551270000000     0.405807   
C5       C      0.103930000000     0.799080000000     0.781240000000     0.40636    
C6       C      0.223230000000     0.863030000000     0.828810000000     0.406167   
C7       C      0.178300000000     0.844580000000     0.718560000000     0.405911   
C8       C      0.148900000000     0.817630000000     0.891490000000     0.405803   
C9       C      0.556490000000     0.029320000000     0.994650000000     0.40598    
C10      C      0.437390000000     0.971600000000     0.945730000000     0.406778   
C11      C      0.481540000000     0.997690000000     0.056520000000     0.406613   
C12      C      0.512210000000     0.002880000000     0.883730000000     0.405337   
C13      C      0.222780000000     0.360530000000     0.332350000000     0.406123   
C14      C      0.104160000000     0.300800000000     0.280810000000     0.406124   
C15      C      0.146940000000     0.325520000000     0.392750000000     0.406085   
C16      C      0.180050000000     0.335900000000     0.220360000000     0.406203   
C17      C      0.771110000000     0.135290000000     0.111530000000     0.406478   
C18      C      0.889680000000     0.193920000000     0.163280000000     0.406416   
C19      C      0.846910000000     0.175960000000     0.051230000000     0.406012   
C20      C      0.813680000000     0.153290000000     0.223590000000     0.405989   
C21      C      0.557020000000     0.531110000000     0.496290000000     0.405935   
C22      C      0.437830000000     0.469550000000     0.447710000000     0.406277   
C23      C      0.482230000000     0.487530000000     0.558490000000     0.406271   
C24      C      0.512710000000     0.512930000000     0.385650000000     0.406138   
C25      C      0.196090000000     0.304100000000     0.783440000000     0.405665   
C26      C      0.131160000000     0.358770000000     0.829660000000     0.405677   
C27      C      0.149820000000     0.331580000000     0.720030000000     0.406114   
C28      C      0.177380000000     0.331130000000     0.893130000000     0.406199   
C29      C      0.303830000000     0.198480000000     0.663240000000     0.40585    
C30      C      0.359700000000     0.135190000000     0.614420000000     0.405638   
C31      C      0.333210000000     0.153210000000     0.725190000000     0.405693   
C32      C      0.330160000000     0.180330000000     0.552440000000     0.405745   
C33      C      0.024470000000     0.465970000000     0.947860000000     0.405013   
C34      C      0.969440000000     0.530300000000     0.995570000000     0.405404   
C35      C      0.995800000000     0.511640000000     0.885250000000     0.40653    
C36      C      0.998300000000     0.484640000000     0.058180000000     0.406572   
C37      C      0.691460000000     0.800390000000     0.278420000000     0.405309   
C38      C      0.634100000000     0.861870000000     0.329200000000     0.405706   
C39      C      0.659030000000     0.843620000000     0.217490000000     0.40561    
C40      C      0.666460000000     0.818810000000     0.390010000000     0.405485   
C41      C      0.799640000000     0.693870000000     0.162320000000     0.40543    
C42      C      0.862750000000     0.637850000000     0.112970000000     0.405276   
C43      C      0.844300000000     0.663350000000     0.223990000000     0.405533   
C44      C      0.818050000000     0.668200000000     0.051300000000     0.405622   
C45      C      0.527300000000     0.970200000000     0.444830000000     0.40575    
C46      C      0.465910000000     0.027780000000     0.494840000000     0.405206   
C47      C      0.483910000000     0.002060000000     0.383590000000     0.405682   
C48      C      0.509490000000     0.996310000000     0.556200000000     0.406486   
C49      C      0.301500000000     0.106210000000     0.164140000000     0.405498   
C50      C      0.359340000000     0.224990000000     0.113330000000     0.405877   
C51      C      0.334170000000     0.181810000000     0.225040000000     0.40566    
C52      C      0.326780000000     0.149610000000     0.052540000000     0.405596   
C53      C      0.466780000000     0.439910000000     0.997340000000     0.406145   
C54      C      0.528270000000     0.558820000000     0.947380000000     0.405979   
C55      C      0.510210000000     0.515080000000     0.058590000000     0.406178   
C56      C      0.484690000000     0.483820000000     0.886000000000     0.406144   
C57      C      0.133500000000     0.772650000000     0.330550000000     0.406013   
C58      C      0.194190000000     0.891420000000     0.279640000000     0.405721   
C59      C      0.176060000000     0.848130000000     0.391290000000     0.405751   
C60      C      0.151470000000     0.815770000000     0.218830000000     0.405752   
C61      C      0.026540000000     0.557580000000     0.445960000000     0.405182   
C62      C      0.969300000000     0.438900000000     0.497160000000     0.405642   
C63      C      0.993940000000     0.482010000000     0.385390000000     0.406458   
C64      C      0.001650000000     0.514450000000     0.557810000000     0.405054   
C65      C      0.796810000000     0.105100000000     0.660270000000     0.405792   
C66      C      0.861400000000     0.224740000000     0.614470000000     0.40578    
C67      C      0.842890000000     0.178720000000     0.723930000000     0.406477   
C68      C      0.815450000000     0.150990000000     0.550770000000     0.406083   
C69      C      0.634090000000     0.772370000000     0.827960000000     0.406162   
C70      C      0.689590000000     0.891520000000     0.779400000000     0.406141   
C71      C      0.663320000000     0.846880000000     0.890090000000     0.405772   
C72      C      0.660440000000     0.816940000000     0.717310000000     0.405614   
C73      C      0.735780000000     0.032850000000     0.710390000000    -0.0849654  
C74      C      0.749500000000     0.014110000000     0.709380000000     0.0337548  
C75      C      0.778860000000     0.026260000000     0.689410000000    -0.0853138  
C76      C      0.794160000000     0.056550000000     0.672740000000     0.0702354  
C77      C      0.751490000000     0.062850000000     0.692510000000     0.0701082  
C78      C      0.733540000000     0.982260000000     0.729250000000     0.0349115  
C79      C      0.750710000000     0.969930000000     0.748860000000    -0.085694   
C80      C      0.735630000000     0.939710000000     0.765800000000     0.0704684  
C81      C      0.686680000000     0.933820000000     0.746890000000     0.0702528  
C82      C      0.701060000000     0.963750000000     0.728760000000    -0.0851501  
C83      C      0.907650000000     0.360760000000     0.528090000000    -0.0853092  
C84      C      0.924690000000     0.348030000000     0.547010000000     0.0343272  
C85      C      0.957170000000     0.366330000000     0.547390000000    -0.0851393  
C86      C      0.971710000000     0.396330000000     0.529550000000     0.070349   
C87      C      0.922910000000     0.391080000000     0.511440000000     0.0700968  
C88      C      0.908640000000     0.315990000000     0.566270000000     0.0343293  
C89      C      0.879290000000     0.303720000000     0.586340000000    -0.0854587  
C90      C      0.864010000000     0.273340000000     0.602630000000     0.0703143  
C91      C      0.906610000000     0.267110000000     0.582190000000     0.070288   
C92      C      0.922290000000     0.297200000000     0.564650000000    -0.0850463  
C93      C      0.120180000000     0.699320000000     0.378940000000    -0.0851659  
C94      C      0.087610000000     0.681390000000     0.379250000000     0.0342547  
C95      C      0.070880000000     0.695060000000     0.362140000000    -0.0847012  
C96      C      0.086520000000     0.725660000000     0.346400000000     0.0703462  
C97      C      0.135020000000     0.729330000000     0.361330000000     0.070468   
C98      C      0.071400000000     0.648820000000     0.397160000000     0.0342416  
C99      C      0.086230000000     0.631050000000     0.397550000000    -0.0852123  
C100     C      0.071210000000     0.601040000000     0.415180000000     0.0704304  
C101     C      0.026200000000     0.604390000000     0.429960000000     0.0703725  
C102     C      0.040990000000     0.634980000000     0.414200000000    -0.0847302  
C103     C      0.544760000000     0.637030000000     0.916860000000    -0.0854387  
C104     C      0.574310000000     0.649610000000     0.897330000000     0.0343374  
C105     C      0.588410000000     0.631230000000     0.896550000000    -0.0851495  
C106     C      0.573060000000     0.601280000000     0.914540000000     0.0703041  
C107     C      0.529790000000     0.606750000000     0.933650000000     0.0702079  
C108     C      0.590180000000     0.681560000000     0.877800000000     0.0343691  
C109     C      0.572990000000     0.693840000000     0.858100000000    -0.0855547  
C110     C      0.588050000000     0.724110000000     0.841310000000     0.0703745  
C111     C      0.636990000000     0.730160000000     0.860660000000     0.0703164  
C112     C      0.622640000000     0.700210000000     0.878680000000    -0.0851107  
C113     C      0.254350000000     0.964300000000     0.229920000000    -0.085254   
C114     C      0.240220000000     0.982660000000     0.231080000000     0.0348649  
C115     C      0.210460000000     0.969740000000     0.250020000000    -0.0853984  
C116     C      0.195430000000     0.939270000000     0.266120000000     0.0701517  
C117     C      0.238950000000     0.934170000000     0.247270000000     0.0703818  
C118     C      0.256370000000     0.014960000000     0.212680000000     0.0336222  
C119     C      0.288850000000     0.033370000000     0.214010000000    -0.0848823  
C120     C      0.303560000000     0.063500000000     0.196650000000     0.0701041  
C121     C      0.254940000000     0.058310000000     0.177460000000     0.0698204  
C122     C      0.239520000000     0.027830000000     0.193560000000    -0.0849606  
C123     C      0.419080000000     0.298250000000     0.064480000000    -0.0852278  
C124     C      0.404380000000     0.316140000000     0.064200000000     0.0343205  
C125     C      0.374050000000     0.302460000000     0.081520000000    -0.0847572  
C126     C      0.359210000000     0.271910000000     0.097410000000     0.0704544  
C127     C      0.404030000000     0.268290000000     0.082280000000     0.0705487  
C128     C      0.420640000000     0.348680000000     0.046140000000     0.034305   
C129     C      0.453220000000     0.366420000000     0.045390000000    -0.0852118  
C130     C      0.468120000000     0.396410000000     0.027700000000     0.0706199  
C131     C      0.419700000000     0.393100000000     0.013570000000     0.0703738  
C132     C      0.403980000000     0.362510000000     0.029370000000    -0.0846088  
C133     C      0.688360000000     0.811380000000     0.605650000000    -0.0861304  
C134     C      0.663200000000     0.806310000000     0.578630000000     0.0343699  
C135     C      0.636260000000     0.802480000000     0.599420000000    -0.0858525  
C136     C      0.635410000000     0.805200000000     0.645990000000     0.0702435  
C137     C      0.686580000000     0.813560000000     0.652260000000     0.0700525  
C138     C      0.665620000000     0.807240000000     0.528920000000     0.0343947  
C139     C      0.691650000000     0.831230000000     0.507580000000    -0.0857701  
C140     C      0.692010000000     0.834170000000     0.460890000000     0.0702139  
C141     C      0.642330000000     0.789030000000     0.455710000000     0.0700228  
C142     C      0.641050000000     0.785620000000     0.502390000000    -0.0862713  
C143     C      0.635710000000     0.851890000000     0.002300000000    -0.0858085  
C144     C      0.660990000000     0.856860000000     0.029010000000     0.034324   
C145     C      0.687850000000     0.860810000000     0.007800000000    -0.0858358  
C146     C      0.688540000000     0.858370000000     0.961190000000     0.0704088  
C147     C      0.637320000000     0.849950000000     0.955590000000     0.0697254  
C148     C      0.658880000000     0.855810000000     0.078780000000     0.0343349  
C149     C      0.632750000000     0.832120000000     0.100400000000    -0.0856152  
C150     C      0.632740000000     0.828980000000     0.147040000000     0.0700916  
C151     C      0.683060000000     0.873260000000     0.151680000000     0.0700657  
C152     C      0.683930000000     0.876930000000     0.105090000000    -0.08614    
C153     C      0.782340000000     0.755220000000     0.191730000000    -0.0852275  
C154     C      0.752650000000     0.738160000000     0.210800000000     0.0342108  
C155     C      0.738750000000     0.705680000000     0.211730000000    -0.0849257  
C156     C      0.754410000000     0.691220000000     0.194280000000     0.0700769  
C157     C      0.797610000000     0.740060000000     0.175540000000     0.0700833  
C158     C      0.736450000000     0.754160000000     0.229640000000     0.0342226  
C159     C      0.753320000000     0.783840000000     0.248810000000    -0.0852156  
C160     C      0.737940000000     0.798890000000     0.265040000000     0.0699929  
C161     C      0.689280000000     0.755510000000     0.246050000000     0.0701005  
C162     C      0.703960000000     0.740070000000     0.228580000000    -0.0849246  
C163     C      0.589960000000     0.955340000000     0.412740000000    -0.0845534  
C164     C      0.573220000000     0.924800000000     0.396150000000     0.0342589  
C165     C      0.540640000000     0.910070000000     0.396990000000    -0.0851894  
C166     C      0.525830000000     0.925270000000     0.414610000000     0.0705419  
C167     C      0.574320000000     0.970310000000     0.428480000000     0.0703228  
C168     C      0.589380000000     0.908380000000     0.378190000000     0.0342293  
C169     C      0.619730000000     0.924890000000     0.360900000000    -0.0845172  
C170     C      0.634470000000     0.909050000000     0.345070000000     0.070241   
C171     C      0.589510000000     0.860750000000     0.360230000000     0.0704586  
C172     C      0.574570000000     0.875790000000     0.377970000000    -0.0851187  
C173     C      0.971900000000     0.501360000000     0.767240000000    -0.0865293  
C174     C      0.998840000000     0.524390000000     0.746370000000     0.036052   
C175     C      0.023950000000     0.544610000000     0.773360000000    -0.0870875  
C176     C      0.022100000000     0.540860000000     0.820020000000     0.0698595  
C177     C      0.970960000000     0.498040000000     0.813850000000     0.0707434  
C178     C      0.001180000000     0.525780000000     0.696630000000     0.0326753  
C179     C      0.027420000000     0.528370000000     0.675150000000    -0.0850794  
C180     C      0.027670000000     0.525610000000     0.628450000000     0.0696988  
C181     C      0.977410000000     0.519740000000     0.623580000000     0.0702067  
C182     C      0.976290000000     0.522130000000     0.670190000000    -0.0851687  
C183     C      0.970670000000     0.451510000000     0.170140000000    -0.0860905  
C184     C      0.996050000000     0.471490000000     0.196890000000     0.0349004  
C185     C      0.022970000000     0.494370000000     0.175820000000    -0.0864905  
C186     C      0.023620000000     0.497830000000     0.129250000000     0.0700858  
C187     C      0.972240000000     0.455370000000     0.123490000000     0.0700787  
C188     C      0.993890000000     0.470220000000     0.246630000000     0.0349158  
C189     C      0.968030000000     0.468430000000     0.268170000000    -0.0859008  
C190     C      0.967990000000     0.471370000000     0.314820000000     0.0705168  
C191     C      0.017650000000     0.475810000000     0.319620000000     0.0696764  
C192     C      0.018600000000     0.473280000000     0.272980000000    -0.0868553  
C193     C      0.879890000000     0.576540000000     0.082800000000    -0.0853275  
C194     C      0.909570000000     0.593630000000     0.063710000000     0.0342796  
C195     C      0.923610000000     0.626110000000     0.063250000000    -0.0849427  
C196     C      0.908010000000     0.640560000000     0.081000000000     0.0700525  
C197     C      0.864700000000     0.591690000000     0.099320000000     0.0702068  
C198     C      0.925550000000     0.577580000000     0.044290000000     0.0343213  
C199     C      0.958010000000     0.591310000000     0.045450000000    -0.0848944  
C200     C      0.972380000000     0.575600000000     0.027800000000     0.0700798  
C201     C      0.923470000000     0.532830000000     0.008130000000     0.0703185  
C202     C      0.908410000000     0.548140000000     0.024530000000    -0.0854488  
C203     C      0.305140000000     0.120000000000     0.836960000000    -0.086093   
C204     C      0.330270000000     0.140130000000     0.863980000000     0.034358   
C205     C      0.357250000000     0.163140000000     0.843170000000    -0.0859125  
C206     C      0.358170000000     0.166590000000     0.796570000000     0.0703085  
C207     C      0.307000000000     0.123830000000     0.790320000000     0.0699446  
C208     C      0.327780000000     0.138740000000     0.913680000000     0.034282   
C209     C      0.301770000000     0.136880000000     0.934870000000    -0.0857407  
C210     C      0.301370000000     0.139530000000     0.981550000000     0.0701171  
C211     C      0.350930000000     0.143800000000     0.987000000000     0.0698617  
C212     C      0.352260000000     0.141610000000     0.940350000000    -0.0861473  
C213     C      0.357560000000     0.213160000000     0.440240000000    -0.0859046  
C214     C      0.332280000000     0.192850000000     0.413560000000     0.0343739  
C215     C      0.305490000000     0.169880000000     0.434790000000    -0.0859613  
C216     C      0.304860000000     0.166670000000     0.481390000000     0.0704291  
C217     C      0.356020000000     0.209520000000     0.486940000000     0.0698508  
C218     C      0.334350000000     0.193980000000     0.363780000000     0.0342931  
C219     C      0.309270000000     0.190050000000     0.337520000000    -0.0861359  
C220     C      0.310130000000     0.187330000000     0.290910000000     0.0700063  
C221     C      0.360480000000     0.193400000000     0.295460000000     0.0700457  
C222     C      0.360490000000     0.196490000000     0.342110000000    -0.0856055  
C223     C      0.420980000000     0.118010000000     0.584080000000    -0.085442   
C224     C      0.403860000000     0.088530000000     0.564420000000     0.0342987  
C225     C      0.371380000000     0.074650000000     0.563580000000    -0.0851392  
C226     C      0.356960000000     0.090170000000     0.581640000000     0.0701906  
C227     C      0.405840000000     0.133140000000     0.600900000000     0.0702509  
C228     C      0.419800000000     0.072490000000     0.544920000000     0.034232   
C229     C      0.449390000000     0.089480000000     0.525470000000    -0.0852848  
C230     C      0.464390000000     0.074190000000     0.508690000000     0.0700119  
C231     C      0.421110000000     0.025450000000     0.527680000000     0.0702572  
C232     C      0.405730000000     0.040010000000     0.545670000000    -0.0852169  
C233     C      0.070190000000     0.370150000000     0.879810000000    -0.0850255  
C234     C      0.083930000000     0.402600000000     0.878620000000     0.0343051  
C235     C      0.113260000000     0.419720000000     0.858520000000    -0.0855341  
C236     C      0.128500000000     0.404670000000     0.841910000000     0.070277   
C237     C      0.085860000000     0.355780000000     0.861990000000     0.0700753  
C238     C      0.068070000000     0.418620000000     0.898420000000     0.0341159  
C239     C      0.035600000000     0.404780000000     0.897980000000    -0.0847204  
C240     C      0.021340000000     0.420540000000     0.915870000000     0.0691818  
C241     C      0.070390000000     0.463500000000     0.934510000000     0.0701453  
C242     C      0.085340000000     0.448170000000     0.917800000000    -0.0853947  
C243     C      0.292130000000     0.259010000000     0.714170000000    -0.0850325  
C244     C      0.259640000000     0.244960000000     0.713800000000     0.034288   
C245     C      0.242530000000     0.215470000000     0.694170000000    -0.0854694  
C246     C      0.257680000000     0.200440000000     0.677080000000     0.0702244  
C247     C      0.306580000000     0.243560000000     0.695890000000     0.070106   
C248     C      0.243600000000     0.260730000000     0.733840000000     0.0342937  
C249     C      0.214260000000     0.243430000000     0.753850000000    -0.0854687  
C250     C      0.198900000000     0.258310000000     0.770690000000     0.0702707  
C251     C      0.241450000000     0.307360000000     0.750980000000     0.0701285  
C252     C      0.257220000000     0.293170000000     0.732940000000    -0.0850401  
C253     C      0.452110000000     0.478020000000     0.773670000000    -0.0862284  
C254     C      0.472980000000     0.473930000000     0.747060000000     0.0344393  
C255     C      0.496280000000     0.470600000000     0.768320000000    -0.0859441  
C256     C      0.499240000000     0.472920000000     0.815010000000     0.0703649  
C257     C      0.455540000000     0.479910000000     0.820330000000     0.0701099  
C258     C      0.471930000000     0.475280000000     0.697350000000     0.0343942  
C259     C      0.476140000000     0.454540000000     0.670600000000    -0.0861599  
C260     C      0.478230000000     0.458190000000     0.623980000000     0.0700887  
C261     C      0.471270000000     0.501890000000     0.629590000000     0.0703483  
C262     C      0.468750000000     0.498700000000     0.676240000000    -0.0858797  
C263     C      0.543690000000     0.522630000000     0.170700000000    -0.0862836  
C264     C      0.522610000000     0.526410000000     0.197260000000     0.0344606  
C265     C      0.498840000000     0.528930000000     0.176040000000    -0.0859924  
C266     C      0.495600000000     0.526040000000     0.129440000000     0.0704815  
C267     C      0.540040000000     0.520270000000     0.124070000000     0.0700869  
C268     C      0.523730000000     0.525270000000     0.246930000000     0.0344448  
C269     C      0.526340000000     0.501560000000     0.268110000000    -0.0859759  
C270     C      0.523530000000     0.498320000000     0.314710000000     0.0705072  
C271     C      0.517610000000     0.542660000000     0.320170000000     0.0700476  
C272     C      0.519880000000     0.546300000000     0.273530000000    -0.0862374  
C273     C      0.833490000000     0.192180000000     0.842290000000    -0.086112   
C274     C      0.856200000000     0.187540000000     0.862700000000     0.034512   
C275     C      0.875830000000     0.182000000000     0.835380000000    -0.0861925  
C276     C      0.871920000000     0.180420000000     0.788750000000     0.0701814  
C277     C      0.829920000000     0.189990000000     0.795730000000     0.0704728  
C278     C      0.857950000000     0.186710000000     0.912350000000     0.0343866  
C279     C      0.856020000000     0.208990000000     0.938620000000    -0.0864609  
C280     C      0.853800000000     0.205780000000     0.985240000000     0.070116   
C281     C      0.856490000000     0.159580000000     0.980690000000     0.0701313  
C282     C      0.859080000000     0.162270000000     0.933940000000    -0.0856957  
C283     C      0.824980000000     0.136710000000     0.432860000000    -0.0862391  
C284     C      0.802480000000     0.141470000000     0.411970000000     0.0344694  
C285     C      0.782880000000     0.147320000000     0.438870000000    -0.0860209  
C286     C      0.786640000000     0.149150000000     0.485560000000     0.069929   
C287     C      0.828380000000     0.139130000000     0.479410000000     0.0707049  
C288     C      0.801120000000     0.142260000000     0.362270000000     0.0343943  
C289     C      0.800220000000     0.166730000000     0.340390000000    -0.0857565  
C290     C      0.803380000000     0.169520000000     0.293700000000     0.0702491  
C291     C      0.806180000000     0.123370000000     0.289690000000     0.070232   
C292     C      0.803380000000     0.120040000000     0.336280000000    -0.0864615  
C293     C      0.117190000000     0.302120000000     0.608390000000    -0.0861277  
C294     C      0.136800000000     0.327370000000     0.581210000000     0.0344968  
C295     C      0.159350000000     0.354720000000     0.601780000000    -0.0861726  
C296     C      0.162780000000     0.355990000000     0.648350000000     0.0706046  
C297     C      0.120960000000     0.304330000000     0.655060000000     0.0699584  
C298     C      0.135270000000     0.324910000000     0.531540000000     0.0343515  
C299     C      0.134290000000     0.299420000000     0.509970000000    -0.0856982  
C300     C      0.137120000000     0.299440000000     0.463250000000     0.0701505  
C301     C      0.139800000000     0.348320000000     0.458650000000     0.070211   
C302     C      0.137320000000     0.349180000000     0.505250000000    -0.0864669  
C303     C      0.189840000000     0.312590000000     0.107680000000    -0.0865481  
C304     C      0.192050000000     0.337030000000     0.081600000000     0.0344576  
C305     C      0.193080000000     0.362470000000     0.103380000000    -0.0857672  
C306     C      0.190140000000     0.362260000000     0.150090000000     0.0702142  
C307     C      0.187240000000     0.313270000000     0.154290000000     0.0702925  
C308     C      0.190550000000     0.334770000000     0.031900000000     0.0344158  
C309     C      0.210130000000     0.360150000000     0.004870000000    -0.0860006  
C310     C      0.206300000000     0.358140000000     0.958210000000     0.0699     
C311     C      0.164510000000     0.306450000000     0.964600000000     0.0705487  
C312     C      0.168000000000     0.307510000000     0.011150000000    -0.0860421  
C313     C      0.031020000000     0.240420000000     0.232280000000    -0.0848418  
C314     C      0.013080000000     0.255060000000     0.231470000000     0.0335628  
C315     C      0.026520000000     0.285340000000     0.248840000000    -0.0847015  
C316     C      0.057010000000     0.300340000000     0.264880000000     0.0705074  
C317     C      0.060980000000     0.255660000000     0.250220000000     0.0702127  
C318     C      0.980750000000     0.238960000000     0.212690000000     0.0350541  
C319     C      0.967380000000     0.255890000000     0.195330000000    -0.0850614  
C320     C      0.936890000000     0.240510000000     0.179270000000     0.0707627  
C321     C      0.932770000000     0.191780000000     0.193920000000     0.070505   
C322     C      0.962730000000     0.206390000000     0.211870000000    -0.0853122  
C323     C      0.360410000000     0.406550000000     0.416430000000    -0.0847265  
C324     C      0.346420000000     0.423070000000     0.399650000000     0.0343245  
C325     C      0.364010000000     0.455650000000     0.400420000000    -0.0852132  
C326     C      0.394060000000     0.470680000000     0.417930000000     0.070612   
C327     C      0.391030000000     0.422390000000     0.432040000000     0.0705566  
C328     C      0.313930000000     0.406600000000     0.381460000000     0.0342708  
C329     C      0.300590000000     0.376330000000     0.364090000000    -0.0847151  
C330     C      0.270050000000     0.361170000000     0.348200000000     0.0705376  
C331     C      0.265770000000     0.405630000000     0.363250000000     0.0704905  
C332     C      0.295740000000     0.420990000000     0.381070000000    -0.0850805  
C333     C      0.518220000000     0.975880000000     0.771690000000    -0.0854769  
C334     C      0.522340000000     0.000770000000     0.744870000000     0.0331372  
C335     C      0.525520000000     0.027390000000     0.765890000000    -0.0853032  
C336     C      0.523060000000     0.028120000000     0.812550000000     0.0698761  
C337     C      0.516200000000     0.977510000000     0.818310000000     0.0702796  
C338     C      0.521250000000     0.998320000000     0.695160000000     0.0356771  
C339     C      0.497940000000     0.971680000000     0.673990000000    -0.0863142  
C340     C      0.494960000000     0.970970000000     0.627290000000     0.0705457  
C341     C      0.538670000000     0.021610000000     0.621810000000     0.0700582  
C342     C      0.542120000000     0.023220000000     0.668470000000    -0.0870302  
C343     C      0.495250000000     0.027350000000     0.266150000000    -0.0854849  
C344     C      0.471510000000     0.001100000000     0.244910000000     0.0331889  
C345     C      0.450430000000     0.976200000000     0.271460000000    -0.0855615  
C346     C      0.454080000000     0.977470000000     0.318090000000     0.0702089  
C347     C      0.498500000000     0.027670000000     0.312750000000     0.0701222  
C348     C      0.470400000000     0.998880000000     0.195230000000     0.0357319  
C349     C      0.474260000000     0.023780000000     0.168640000000    -0.0871544  
C350     C      0.476570000000     0.022450000000     0.122000000000     0.0700061  
C351     C      0.470670000000     0.972200000000     0.127440000000     0.0707692  
C352     C      0.467810000000     0.972580000000     0.174040000000    -0.0864207  
C353     C      0.693400000000     0.073350000000     0.079450000000    -0.0849495  
C354     C      0.680140000000     0.090310000000     0.061840000000     0.034375   
C355     C      0.698300000000     0.122870000000     0.062280000000    -0.0851611  
C356     C      0.728210000000     0.137460000000     0.080330000000     0.0704896  
C357     C      0.723870000000     0.088710000000     0.095580000000     0.0706778  
C358     C      0.647730000000     0.074290000000     0.043350000000     0.0342899  
C359     C      0.633870000000     0.043830000000     0.026510000000    -0.0847413  
C360     C      0.603310000000     0.029030000000     0.010670000000     0.0704493  
C361     C      0.600120000000     0.074230000000     0.024610000000     0.0705213  
C362     C      0.630110000000     0.089260000000     0.042350000000    -0.0852012  
C363     C      0.192730000000     0.834860000000     0.600690000000    -0.0860244  
C364     C      0.188690000000     0.857820000000     0.579840000000     0.0344685  
C365     C      0.183460000000     0.877820000000     0.606780000000    -0.0861594  
C366     C      0.181360000000     0.873920000000     0.653410000000     0.0700487  
C367     C      0.190080000000     0.831350000000     0.647270000000     0.0704516  
C368     C      0.187720000000     0.859240000000     0.530130000000     0.034365   
C369     C      0.209450000000     0.856450000000     0.503640000000    -0.0862688  
C370     C      0.205990000000     0.854180000000     0.456980000000     0.0701155  
C371     C      0.160590000000     0.858280000000     0.462080000000     0.0702691  
C372     C      0.163570000000     0.861000000000     0.508750000000    -0.0857866  
C373     C      0.143770000000     0.784760000000     0.003580000000    -0.0857714  
C374     C      0.138710000000     0.804960000000     0.030340000000     0.0342613  
C375     C      0.134790000000     0.827920000000     0.009220000000    -0.0858298  
C376     C      0.137340000000     0.831200000000     0.962630000000     0.0703815  
C377     C      0.145830000000     0.788460000000     0.956890000000     0.0697138  
C378     C      0.139610000000     0.803730000000     0.080100000000     0.0344367  
C379     C      0.163320000000     0.801330000000     0.101780000000    -0.0858313  
C380     C      0.166340000000     0.804350000000     0.148440000000     0.0701876  
C381     C      0.121870000000     0.810110000000     0.152930000000     0.0700879  
C382     C      0.118330000000     0.807450000000     0.106320000000    -0.0863063  
C383     C      0.302000000000     0.880790000000     0.858090000000    -0.08547    
C384     C      0.314300000000     0.910300000000     0.877580000000     0.0343446  
C385     C      0.295570000000     0.924030000000     0.878630000000    -0.0851294  
C386     C      0.265520000000     0.908300000000     0.860980000000     0.0703693  
C387     C      0.271640000000     0.865450000000     0.841670000000     0.0704046  
C388     C      0.346350000000     0.926520000000     0.896730000000     0.0344984  
C389     C      0.359080000000     0.909680000000     0.916270000000    -0.0855793  
C390     C      0.389440000000     0.925100000000     0.932700000000     0.0704648  
C391     C      0.394710000000     0.973700000000     0.913220000000     0.0705044  
C392     C      0.364660000000     0.958990000000     0.895570000000    -0.0853526  
C393     C      0.808780000000     0.689190000000     0.835930000000    -0.0860459  
C394     C      0.804370000000     0.664150000000     0.862690000000     0.0343935  
C395     C      0.801140000000     0.637550000000     0.841560000000    -0.0858204  
C396     C      0.803880000000     0.636990000000     0.794940000000     0.0702217  
C397     C      0.811070000000     0.687730000000     0.789290000000     0.0699552  
C398     C      0.805510000000     0.666470000000     0.912450000000     0.0342453  
C399     C      0.828900000000     0.693040000000     0.933620000000    -0.0856969  
C400     C      0.832140000000     0.693600000000     0.980260000000     0.0701034  
C401     C      0.788490000000     0.642930000000     0.985850000000     0.0697744  
C402     C      0.784800000000     0.641470000000     0.939190000000    -0.0858622  
C403     C      0.853390000000     0.640960000000     0.438990000000    -0.0859619  
C404     C      0.858030000000     0.666220000000     0.412510000000     0.0343311  
C405     C      0.861270000000     0.692720000000     0.433970000000    -0.0858032  
C406     C      0.858320000000     0.692990000000     0.480560000000     0.0702571  
C407     C      0.850870000000     0.642130000000     0.485640000000     0.0699799  
C408     C      0.856970000000     0.664200000000     0.362720000000     0.0343468  
C409     C      0.877650000000     0.689400000000     0.336230000000    -0.0859347  
C410     C      0.873900000000     0.688270000000     0.289590000000     0.0699047  
C411     C      0.830310000000     0.637530000000     0.294700000000     0.0702556  
C412     C      0.833590000000     0.637770000000     0.341290000000    -0.0857872  
C413     C      0.692770000000     0.575860000000     0.582910000000    -0.0855378  
C414     C      0.680320000000     0.593070000000     0.563750000000     0.0343993  
C415     C      0.698940000000     0.625530000000     0.562960000000    -0.0852797  
C416     C      0.728990000000     0.639860000000     0.580630000000     0.0703676  
C417     C      0.723130000000     0.590910000000     0.599340000000     0.0704406  
C418     C      0.648230000000     0.577210000000     0.544730000000     0.0343558  
C419     C      0.635510000000     0.547670000000     0.525140000000    -0.0855018  
C420     C      0.605080000000     0.532680000000     0.508920000000     0.0703174  
C421     C      0.599720000000     0.575910000000     0.528660000000     0.0703499  
C422     C      0.629830000000     0.591290000000     0.546120000000    -0.085202   
C423     C      0.968730000000     0.753460000000     0.692930000000    -0.0858034  
C424     C      0.981080000000     0.736240000000     0.712290000000     0.0352011  
C425     C      0.962550000000     0.703770000000     0.712720000000    -0.0853727  
C426     C      0.932590000000     0.689450000000     0.694690000000     0.0704523  
C427     C      0.938480000000     0.738450000000     0.676140000000     0.0705744  
C428     C      0.012970000000     0.752120000000     0.732020000000     0.0336362  
C429     C      0.031620000000     0.738310000000     0.730940000000    -0.0849384  
C430     C      0.061630000000     0.753910000000     0.748820000000     0.0702263  
C431     C      0.055530000000     0.796700000000     0.768570000000     0.070286   
C432     C      0.025230000000     0.781500000000     0.751950000000    -0.0853902  
Cu1      Cu     0.832720000000     0.690310000000     0.633820000000     0.847598   
Cu2      Cu     0.828950000000     0.639130000000     0.641330000000     0.846284   
Cu3      Cu     0.161520000000     0.854640000000     0.809240000000     0.848551   
Cu4      Cu     0.165650000000     0.807480000000     0.800780000000     0.84623    
Cu5      Cu     0.498160000000     0.025680000000     0.966640000000     0.847518   
Cu6      Cu     0.495740000000     0.975090000000     0.973660000000     0.84705    
Cu7      Cu     0.163760000000     0.355590000000     0.304460000000     0.848025   
Cu8      Cu     0.163190000000     0.305750000000     0.308650000000     0.846283   
Cu9      Cu     0.830140000000     0.189280000000     0.139480000000     0.848374   
Cu10     Cu     0.830630000000     0.139960000000     0.135390000000     0.846509   
Cu11     Cu     0.496150000000     0.524310000000     0.475520000000     0.848014   
Cu12     Cu     0.498670000000     0.476190000000     0.468580000000     0.846746   
Cu13     Cu     0.140200000000     0.305680000000     0.811250000000     0.846509   
Cu14     Cu     0.187000000000     0.357120000000     0.801920000000     0.847193   
Cu15     Cu     0.306170000000     0.143160000000     0.634620000000     0.847678   
Cu16     Cu     0.357320000000     0.190480000000     0.643020000000     0.844968   
Cu17     Cu     0.971320000000     0.474620000000     0.967520000000     0.846701   
Cu18     Cu     0.022660000000     0.521690000000     0.975950000000     0.845279   
Cu19     Cu     0.637490000000     0.807050000000     0.300780000000     0.846847   
Cu20     Cu     0.688090000000     0.855300000000     0.306670000000     0.844724   
Cu21     Cu     0.807410000000     0.640310000000     0.141400000000     0.846309   
Cu22     Cu     0.854950000000     0.691370000000     0.133910000000     0.845157   
Cu23     Cu     0.472630000000     0.973780000000     0.473260000000     0.848663   
Cu24     Cu     0.520780000000     0.024390000000     0.466460000000     0.844024   
Cu25     Cu     0.355660000000     0.166690000000     0.141830000000     0.847988   
Cu26     Cu     0.305160000000     0.164580000000     0.135800000000     0.844156   
Cu27     Cu     0.521510000000     0.498100000000     0.968970000000     0.84867    
Cu28     Cu     0.473370000000     0.500620000000     0.975680000000     0.845585   
Cu29     Cu     0.188020000000     0.831030000000     0.302150000000     0.848141   
Cu30     Cu     0.139550000000     0.832990000000     0.307940000000     0.844485   
Cu31     Cu     0.023170000000     0.499420000000     0.474490000000     0.846042   
Cu32     Cu     0.972550000000     0.497080000000     0.468700000000     0.846331   
Cu33     Cu     0.852590000000     0.162670000000     0.632660000000     0.848024   
Cu34     Cu     0.805680000000     0.167150000000     0.642030000000     0.846462   
Cu35     Cu     0.687470000000     0.833940000000     0.807880000000     0.848093   
Cu36     Cu     0.636230000000     0.829950000000     0.799470000000     0.845477   
H1       H      0.790140000000     0.012520000000     0.686440000000     0.0504234  
H2       H      0.816980000000     0.065010000000     0.658160000000     0.0260983  
H3       H      0.740160000000     0.076610000000     0.694650000000     0.0266484  
H4       H      0.713350000000     0.024830000000     0.725870000000     0.0509702  
H5       H      0.775750000000     0.983480000000     0.751410000000     0.050853   
H6       H      0.749950000000     0.931120000000     0.780150000000     0.0261295  
H7       H      0.661560000000     0.920240000000     0.745220000000     0.0266682  
H8       H      0.686660000000     0.971920000000     0.713560000000     0.0512175  
H9       H      0.971480000000     0.357920000000     0.562180000000     0.051158   
H10      H      0.996860000000     0.409660000000     0.531000000000     0.0268116  
H11      H      0.908730000000     0.399970000000     0.497510000000     0.0261126  
H12      H      0.882590000000     0.347420000000     0.525750000000     0.0505815  
H13      H      0.868040000000     0.317460000000     0.589750000000     0.0505574  
H14      H      0.841220000000     0.264810000000     0.617380000000     0.0261388  
H15      H      0.917920000000     0.253330000000     0.579640000000     0.0267226  
H16      H      0.944690000000     0.305270000000     0.549010000000     0.0511722  
H17      H      0.045810000000     0.682320000000     0.360250000000     0.0507318  
H18      H      0.072650000000     0.735290000000     0.333800000000     0.0261171  
H19      H      0.160200000000     0.742160000000     0.361970000000     0.0259041  
H20      H      0.134530000000     0.690700000000     0.392860000000     0.0501045  
H21      H      0.109210000000     0.639800000000     0.383680000000     0.0501472  
H22      H      0.083700000000     0.588350000000     0.414600000000     0.0259029  
H23      H      0.002670000000     0.594630000000     0.442520000000     0.0259887  
H24      H      0.028520000000     0.647590000000     0.416030000000     0.0507179  
H25      H      0.610960000000     0.639510000000     0.881280000000     0.0510978  
H26      H      0.584780000000     0.587870000000     0.912710000000     0.0267638  
H27      H      0.506860000000     0.597950000000     0.948020000000     0.0260386  
H28      H      0.533130000000     0.650440000000     0.919540000000     0.0505801  
H29      H      0.547970000000     0.680210000000     0.855300000000     0.0506018  
H30      H      0.573730000000     0.732660000000     0.826830000000     0.0260817  
H31      H      0.662110000000     0.743810000000     0.862580000000     0.0266394  
H32      H      0.637060000000     0.692130000000     0.894050000000     0.0510884  
H33      H      0.198740000000     0.983060000000     0.252900000000     0.0506291  
H34      H      0.172380000000     0.930250000000     0.280180000000     0.0260741  
H35      H      0.250760000000     0.920860000000     0.245290000000     0.0267266  
H36      H      0.277010000000     0.972770000000     0.214940000000     0.0512499  
H37      H      0.303040000000     0.024940000000     0.229130000000     0.0509015  
H38      H      0.328680000000     0.076860000000     0.198770000000     0.0267471  
H39      H      0.240910000000     0.067280000000     0.163260000000     0.0260771  
H40      H      0.214490000000     0.014470000000     0.190540000000     0.0502294  
H41      H      0.361690000000     0.315170000000     0.083450000000     0.0507749  
H42      H      0.335740000000     0.262270000000     0.110170000000     0.0260894  
H43      H      0.416420000000     0.255490000000     0.081610000000     0.0258879  
H44      H      0.441980000000     0.306840000000     0.050400000000     0.050153   
H45      H      0.467550000000     0.357700000000     0.059050000000     0.0501316  
H46      H      0.493300000000     0.409080000000     0.028020000000     0.0259146  
H47      H      0.405880000000     0.402880000000     0.001260000000     0.0261923  
H48      H      0.378890000000     0.349920000000     0.027820000000     0.0507652  
H49      H      0.616350000000     0.798700000000     0.579690000000     0.0518233  
H50      H      0.614380000000     0.802920000000     0.660520000000     0.026491   
H51      H      0.706810000000     0.818110000000     0.671870000000     0.026421   
H52      H      0.709480000000     0.814130000000     0.590820000000     0.0513239  
H53      H      0.711090000000     0.848500000000     0.526930000000     0.0519149  
H54      H      0.712220000000     0.853660000000     0.445870000000     0.0265624  
H55      H      0.622490000000     0.772160000000     0.436530000000     0.0263313  
H56      H      0.620690000000     0.766500000000     0.517650000000     0.0512788  
H57      H      0.707850000000     0.864490000000     0.027210000000     0.0518385  
H58      H      0.709550000000     0.860780000000     0.946390000000     0.0265613  
H59      H      0.617030000000     0.845460000000     0.936210000000     0.0263478  
H60      H      0.614650000000     0.849080000000     0.017430000000     0.0512047  
H61      H      0.612930000000     0.815220000000     0.081260000000     0.0517301  
H62      H      0.612410000000     0.809740000000     0.162260000000     0.0265636  
H63      H      0.703260000000     0.889750000000     0.170610000000     0.0264684  
H64      H      0.704390000000     0.895850000000     0.089690000000     0.0512543  
H65      H      0.716110000000     0.691330000000     0.226670000000     0.0510421  
H66      H      0.742840000000     0.666100000000     0.196170000000     0.0266583  
H67      H      0.820620000000     0.754300000000     0.161490000000     0.0261826  
H68      H      0.793860000000     0.780250000000     0.188890000000     0.0505008  
H69      H      0.778350000000     0.795510000000     0.251720000000     0.0505262  
H70      H      0.752020000000     0.821890000000     0.279200000000     0.026145   
H71      H      0.664160000000     0.743770000000     0.244090000000     0.0267496  
H72      H      0.689750000000     0.717440000000     0.213530000000     0.0510338  
H73      H      0.526250000000     0.887020000000     0.383460000000     0.050152   
H74      H      0.500650000000     0.912820000000     0.414370000000     0.0259437  
H75      H      0.588200000000     0.993920000000     0.440650000000     0.0262715  
H76      H      0.615040000000     0.967770000000     0.414210000000     0.0508334  
H77      H      0.632210000000     0.949960000000     0.358940000000     0.0507344  
H78      H      0.657950000000     0.922770000000     0.332330000000     0.0261791  
H79      H      0.577030000000     0.835570000000     0.360930000000     0.0258892  
H80      H      0.551650000000     0.861570000000     0.392040000000     0.0501109  
H81      H      0.045070000000     0.562950000000     0.758480000000     0.0514238  
H82      H      0.042280000000     0.556640000000     0.839630000000     0.0263379  
H83      H      0.949900000000     0.479350000000     0.828420000000     0.026412   
H84      H      0.952020000000     0.485110000000     0.747590000000     0.0520362  
H85      H      0.047130000000     0.531090000000     0.694390000000     0.0514741  
H86      H      0.048050000000     0.526760000000     0.613310000000     0.0265172  
H87      H      0.957310000000     0.516220000000     0.604540000000     0.0265479  
H88      H      0.955770000000     0.520520000000     0.685500000000     0.0510248  
H89      H      0.043050000000     0.510420000000     0.195320000000     0.0518607  
H90      H      0.044680000000     0.516420000000     0.114520000000     0.0265257  
H91      H      0.951870000000     0.439800000000     0.104080000000     0.0263072  
H92      H      0.949540000000     0.433300000000     0.185200000000     0.0512778  
H93      H      0.948490000000     0.466200000000     0.248990000000     0.0519481  
H94      H      0.947890000000     0.470820000000     0.329970000000     0.0265624  
H95      H      0.037580000000     0.478860000000     0.338650000000     0.0262455  
H96      H      0.038840000000     0.474350000000     0.257570000000     0.0512865  
H97      H      0.946280000000     0.640470000000     0.048400000000     0.051128   
H98      H      0.919650000000     0.665690000000     0.079420000000     0.0267136  
H99      H      0.841680000000     0.577420000000     0.113320000000     0.0261135  
H100     H      0.868300000000     0.551490000000     0.085330000000     0.0505483  
H101     H      0.972390000000     0.613790000000     0.060810000000     0.0511659  
H102     H      0.997480000000     0.586960000000     0.029980000000     0.0268304  
H103     H      0.909160000000     0.509980000000     0.993640000000     0.0260675  
H104     H      0.883410000000     0.536820000000     0.021410000000     0.0505944  
H105     H      0.377140000000     0.179290000000     0.862900000000     0.0518233  
H106     H      0.379230000000     0.185290000000     0.782010000000     0.0264599  
H107     H      0.286790000000     0.108120000000     0.770700000000     0.0263819  
H108     H      0.283990000000     0.101680000000     0.851810000000     0.0512331  
H109     H      0.282400000000     0.134790000000     0.915400000000     0.051853   
H110     H      0.281180000000     0.138940000000     0.996460000000     0.0264891  
H111     H      0.370710000000     0.146680000000     0.006280000000     0.0264071  
H112     H      0.372610000000     0.142720000000     0.925200000000     0.0511754  
H113     H      0.285490000000     0.153560000000     0.415400000000     0.0517972  
H114     H      0.283900000000     0.148000000000     0.496200000000     0.0265089  
H115     H      0.376320000000     0.225330000000     0.506310000000     0.0263263  
H116     H      0.378590000000     0.231470000000     0.425100000000     0.0511674  
H117     H      0.288800000000     0.188460000000     0.352970000000     0.0511788  
H118     H      0.289910000000     0.183610000000     0.272010000000     0.0263967  
H119     H      0.380820000000     0.194530000000     0.280210000000     0.0265647  
H120     H      0.380330000000     0.199390000000     0.361200000000     0.0517107  
H121     H      0.357010000000     0.052170000000     0.548230000000     0.0510735  
H122     H      0.331840000000     0.078650000000     0.579750000000     0.026618   
H123     H      0.420110000000     0.156010000000     0.615360000000     0.026104   
H124     H      0.446010000000     0.129460000000     0.586830000000     0.0505435  
H125     H      0.461010000000     0.114520000000     0.522840000000     0.0505114  
H126     H      0.487330000000     0.088330000000     0.494360000000     0.0260558  
H127     H      0.409390000000     0.000330000000     0.529470000000     0.0266129  
H128     H      0.383180000000     0.025740000000     0.560900000000     0.0510529  
H129     H      0.124540000000     0.444720000000     0.855370000000     0.0506028  
H130     H      0.151280000000     0.418970000000     0.827200000000     0.0261304  
H131     H      0.074530000000     0.330690000000     0.864260000000     0.0266242  
H132     H      0.047770000000     0.355800000000     0.895370000000     0.05103    
H133     H      0.021130000000     0.382190000000     0.882980000000     0.0508584  
H134     H      0.996220000000     0.409090000000     0.914210000000     0.0271919  
H135     H      0.084790000000     0.486440000000     0.948680000000     0.0261248  
H136     H      0.110380000000     0.459570000000     0.920340000000     0.050584   
H137     H      0.217480000000     0.203910000000     0.691700000000     0.0505846  
H138     H      0.243410000000     0.177540000000     0.662720000000     0.026096   
H139     H      0.331710000000     0.255180000000     0.697480000000     0.0266635  
H140     H      0.306480000000     0.281550000000     0.729380000000     0.0510877  
H141     H      0.203060000000     0.218420000000     0.756740000000     0.0505535  
H142     H      0.176110000000     0.243890000000     0.785310000000     0.0260529  
H143     H      0.252710000000     0.332450000000     0.748930000000     0.0266808  
H144     H      0.279630000000     0.307660000000     0.717440000000     0.0510993  
H145     H      0.512980000000     0.467540000000     0.748920000000     0.0518569  
H146     H      0.518170000000     0.471130000000     0.829980000000     0.0264444  
H147     H      0.439240000000     0.483730000000     0.839570000000     0.0265113  
H148     H      0.433510000000     0.480250000000     0.758490000000     0.0512827  
H149     H      0.478280000000     0.435850000000     0.685650000000     0.0512403  
H150     H      0.482110000000     0.441970000000     0.604640000000     0.0265139  
H151     H      0.469550000000     0.520890000000     0.614750000000     0.0264448  
H152     H      0.465620000000     0.515320000000     0.695750000000     0.0518267  
H153     H      0.481980000000     0.531730000000     0.195460000000     0.0520268  
H154     H      0.476310000000     0.527190000000     0.114510000000     0.026531   
H155     H      0.556500000000     0.516700000000     0.104830000000     0.0262822  
H156     H      0.562580000000     0.520920000000     0.185940000000     0.0513012  
H157     H      0.529180000000     0.484730000000     0.248660000000     0.0519913  
H158     H      0.524780000000     0.479070000000     0.329600000000     0.0265119  
H159     H      0.514000000000     0.559080000000     0.339460000000     0.0262733  
H160     H      0.518090000000     0.565150000000     0.258320000000     0.0512872  
H161     H      0.893870000000     0.178590000000     0.849970000000     0.0514191  
H162     H      0.887260000000     0.175570000000     0.768830000000     0.0264223  
H163     H      0.811520000000     0.192980000000     0.781480000000     0.0264233  
H164     H      0.817720000000     0.196330000000     0.862280000000     0.0519427  
H165     H      0.855550000000     0.228480000000     0.923160000000     0.0513565  
H166     H      0.851620000000     0.223220000000     0.004150000000     0.0265435  
H167     H      0.856400000000     0.139750000000     0.996000000000     0.0264692  
H168     H      0.860500000000     0.144520000000     0.914740000000     0.0519097  
H169     H      0.765010000000     0.150850000000     0.423910000000     0.0512619  
H170     H      0.771360000000     0.154260000000     0.505160000000     0.0262819  
H171     H      0.846640000000     0.136030000000     0.493990000000     0.0265156  
H172     H      0.840740000000     0.132340000000     0.413240000000     0.0520133  
H173     H      0.798600000000     0.184450000000     0.359350000000     0.0519582  
H174     H      0.803610000000     0.189370000000     0.278210000000     0.0265615  
H175     H      0.808610000000     0.105990000000     0.271010000000     0.0263271  
H176     H      0.803680000000     0.100520000000     0.351960000000     0.0512572  
H177     H      0.175110000000     0.374720000000     0.581910000000     0.0519314  
H178     H      0.181080000000     0.377400000000     0.662720000000     0.0264301  
H179     H      0.105660000000     0.284080000000     0.674880000000     0.026338   
H180     H      0.099270000000     0.280670000000     0.593680000000     0.0512734  
H181     H      0.132800000000     0.280210000000     0.529180000000     0.0518582  
H182     H      0.137300000000     0.279740000000     0.447970000000     0.0264702  
H183     H      0.142050000000     0.367980000000     0.439740000000     0.0263974  
H184     H      0.137680000000     0.369090000000     0.520690000000     0.0512601  
H185     H      0.194680000000     0.381790000000     0.084350000000     0.0519151  
H186     H      0.190010000000     0.381940000000     0.165520000000     0.0265271  
H187     H      0.184850000000     0.293490000000     0.173050000000     0.0263358  
H188     H      0.189430000000     0.292710000000     0.092080000000     0.0513189  
H189     H      0.228050000000     0.381540000000     0.019720000000     0.0512983  
H190     H      0.221570000000     0.378480000000     0.938520000000     0.0263185  
H191     H      0.146210000000     0.285090000000     0.950120000000     0.0264602  
H192     H      0.152250000000     0.287420000000     0.030880000000     0.0518862  
H193     H      0.013710000000     0.297610000000     0.250610000000     0.0505934  
H194     H      0.066450000000     0.323800000000     0.277550000000     0.0261508  
H195     H      0.073910000000     0.243420000000     0.249870000000     0.0257727  
H196     H      0.022470000000     0.217460000000     0.218420000000     0.0498498  
H197     H      0.980250000000     0.280960000000     0.193570000000     0.0510928  
H198     H      0.927510000000     0.254590000000     0.166610000000     0.0262234  
H199     H      0.919780000000     0.166610000000     0.194270000000     0.0258185  
H200     H      0.971210000000     0.191920000000     0.225720000000     0.0503598  
H201     H      0.355120000000     0.469860000000     0.386860000000     0.0501354  
H202     H      0.406640000000     0.495860000000     0.417570000000     0.0258802  
H203     H      0.400920000000     0.408660000000     0.444270000000     0.0261293  
H204     H      0.347920000000     0.381470000000     0.418080000000     0.0507976  
H205     H      0.313550000000     0.364210000000     0.362120000000     0.0507426  
H206     H      0.260700000000     0.337750000000     0.335440000000     0.0261304  
H207     H      0.252700000000     0.417730000000     0.363840000000     0.02578    
H208     H      0.304120000000     0.443880000000     0.395080000000     0.0500835  
H209     H      0.528590000000     0.047110000000     0.746310000000     0.0515933  
H210     H      0.524760000000     0.048840000000     0.827330000000     0.0265192  
H211     H      0.512380000000     0.957440000000     0.837720000000     0.026551   
H212     H      0.516090000000     0.955050000000     0.756710000000     0.051134   
H213     H      0.481240000000     0.951960000000     0.693460000000     0.0520075  
H214     H      0.476020000000     0.950250000000     0.612390000000     0.0264061  
H215     H      0.554980000000     0.041700000000     0.602500000000     0.0264924  
H216     H      0.560730000000     0.044060000000     0.683580000000     0.0514423  
H217     H      0.431560000000     0.955630000000     0.256210000000     0.0511883  
H218     H      0.437640000000     0.957420000000     0.337330000000     0.026284   
H219     H      0.517780000000     0.048110000000     0.327690000000     0.0265841  
H220     H      0.512110000000     0.047030000000     0.246740000000     0.0518069  
H221     H      0.476040000000     0.044390000000     0.183850000000     0.0515158  
H222     H      0.480190000000     0.042490000000     0.102720000000     0.026207   
H223     H      0.469430000000     0.951720000000     0.112540000000     0.0264982  
H224     H      0.464960000000     0.952900000000     0.193480000000     0.0521867  
H225     H      0.689960000000     0.137380000000     0.048110000000     0.0501123  
H226     H      0.741280000000     0.162620000000     0.079740000000     0.0257588  
H227     H      0.733180000000     0.074620000000     0.108490000000     0.0260709  
H228     H      0.680440000000     0.048290000000     0.081420000000     0.0507774  
H229     H      0.646400000000     0.031270000000     0.025020000000     0.0507554  
H230     H      0.593490000000     0.005440000000     0.998420000000     0.0259936  
H231     H      0.587500000000     0.086790000000     0.024810000000     0.0259137  
H232     H      0.638910000000     0.112330000000     0.055910000000     0.050133   
H233     H      0.180550000000     0.896080000000     0.591880000000     0.0513493  
H234     H      0.176690000000     0.889520000000     0.672980000000     0.0264195  
H235     H      0.192530000000     0.812700000000     0.661850000000     0.0264546  
H236     H      0.196640000000     0.818810000000     0.581010000000     0.0518739  
H237     H      0.228690000000     0.855420000000     0.518940000000     0.0512842  
H238     H      0.222960000000     0.851340000000     0.437840000000     0.0263335  
H239     H      0.140980000000     0.858790000000     0.447030000000     0.0265319  
H240     H      0.146210000000     0.863040000000     0.528070000000     0.051882   
H241     H      0.131040000000     0.844170000000     0.028680000000     0.051792   
H242     H      0.134950000000     0.849840000000     0.947890000000     0.0265223  
H243     H      0.150370000000     0.772720000000     0.937460000000     0.026365   
H244     H      0.146570000000     0.766470000000     0.018650000000     0.0511242  
H245     H      0.180330000000     0.798580000000     0.082700000000     0.0518188  
H246     H      0.185610000000     0.803330000000     0.163720000000     0.0265148  
H247     H      0.105280000000     0.813690000000     0.171810000000     0.0264314  
H248     H      0.099400000000     0.808940000000     0.090850000000     0.0512437  
H249     H      0.303660000000     0.946550000000     0.893870000000     0.0511711  
H250     H      0.251810000000     0.919690000000     0.863020000000     0.0266705  
H251     H      0.263080000000     0.842550000000     0.827330000000     0.0260834  
H252     H      0.315700000000     0.869460000000     0.855180000000     0.0505564  
H253     H      0.345710000000     0.884650000000     0.919220000000     0.0506132  
H254     H      0.398360000000     0.911070000000     0.947100000000     0.026013   
H255     H      0.408070000000     0.998810000000     0.911120000000     0.0268318  
H256     H      0.356240000000     0.973130000000     0.880280000000     0.0512737  
H257     H      0.797880000000     0.617730000000     0.861030000000     0.0517633  
H258     H      0.802120000000     0.616250000000     0.780140000000     0.0265023  
H259     H      0.815150000000     0.707900000000     0.769920000000     0.0264398  
H260     H      0.810990000000     0.710030000000     0.850980000000     0.0512311  
H261     H      0.845520000000     0.712830000000     0.914170000000     0.0517656  
H262     H      0.851140000000     0.714310000000     0.995080000000     0.0265584  
H263     H      0.772350000000     0.622790000000     0.005190000000     0.0264776  
H264     H      0.766140000000     0.620650000000     0.924100000000     0.051117   
H265     H      0.864690000000     0.712690000000     0.414750000000     0.0518115  
H266     H      0.860110000000     0.713680000000     0.495580000000     0.0266207  
H267     H      0.846610000000     0.621820000000     0.504780000000     0.0263203  
H268     H      0.851160000000     0.620180000000     0.423680000000     0.0511765  
H269     H      0.896290000000     0.710130000000     0.351510000000     0.0512126  
H270     H      0.890000000000     0.708540000000     0.270430000000     0.0263909  
H271     H      0.811320000000     0.616890000000     0.279700000000     0.0265805  
H272     H      0.816990000000     0.617840000000     0.360530000000     0.0517581  
H273     H      0.690760000000     0.639950000000     0.547960000000     0.0511974  
H274     H      0.742610000000     0.664980000000     0.578840000000     0.0266275  
H275     H      0.731790000000     0.576580000000     0.613460000000     0.0260782  
H276     H      0.679180000000     0.550830000000     0.585620000000     0.0505817  
H277     H      0.648920000000     0.536070000000     0.521980000000     0.0506018  
H278     H      0.596180000000     0.509760000000     0.494480000000     0.0260348  
H279     H      0.586310000000     0.587600000000     0.530940000000     0.0267086  
H280     H      0.638230000000     0.613820000000     0.561470000000     0.0511477  
H281     H      0.970710000000     0.689330000000     0.727770000000     0.0513294  
H282     H      0.919000000000     0.664330000000     0.696270000000     0.0265994  
H283     H      0.929870000000     0.752800000000     0.661950000000     0.0261059  
H284     H      0.982300000000     0.778500000000     0.690420000000     0.0508968  
H285     H      0.023530000000     0.715870000000     0.715450000000     0.0509113  
H286     H      0.075320000000     0.742500000000     0.746680000000     0.0266151  
H287     H      0.064070000000     0.819520000000     0.783170000000     0.0260625  
H288     H      0.011570000000     0.792850000000     0.754990000000     0.0503933  
N1       N      0.780730000000     0.074840000000     0.674660000000    -0.19254    
N2       N      0.703870000000     0.921670000000     0.764510000000    -0.192626   
N3       N      0.954710000000     0.408800000000     0.512320000000    -0.192453   
N4       N      0.877430000000     0.255040000000     0.600260000000    -0.192561   
N5       N      0.118350000000     0.742580000000     0.345730000000    -0.19277    
N6       N      0.041280000000     0.587640000000     0.430730000000    -0.192671   
N7       N      0.543750000000     0.588930000000     0.932290000000    -0.192601   
N8       N      0.619800000000     0.742230000000     0.842830000000    -0.192754   
N9       N      0.209540000000     0.921580000000     0.264710000000    -0.192489   
N10      N      0.286730000000     0.076050000000     0.179050000000    -0.19238    
N11      N      0.374170000000     0.255030000000     0.098070000000    -0.192815   
N12      N      0.451530000000     0.409830000000     0.012470000000    -0.192796   
N13      N      0.660650000000     0.811430000000     0.672160000000    -0.192469   
N14      N      0.667160000000     0.813720000000     0.435230000000    -0.192411   
N15      N      0.663210000000     0.852220000000     0.935320000000    -0.192462   
N16      N      0.658070000000     0.848870000000     0.172380000000    -0.19242    
N17      N      0.783840000000     0.708290000000     0.176970000000    -0.192361   
N18      N      0.706150000000     0.784900000000     0.263540000000    -0.192293   
N19      N      0.542490000000     0.955300000000     0.429700000000    -0.192637   
N20      N      0.619380000000     0.877210000000     0.344450000000    -0.192637   
N21      N      0.996130000000     0.517170000000     0.840010000000    -0.192466   
N22      N      0.002480000000     0.520430000000     0.602970000000    -0.192563   
N23      N      0.998190000000     0.478970000000     0.103340000000    -0.192373   
N24      N      0.992980000000     0.475910000000     0.340260000000    -0.192384   
N25      N      0.878540000000     0.623460000000     0.098190000000    -0.192425   
N26      N      0.955200000000     0.546320000000     0.010050000000    -0.192304   
N27      N      0.332970000000     0.147560000000     0.770390000000    -0.192446   
N28      N      0.326130000000     0.143810000000     0.007340000000    -0.192387   
N29      N      0.330200000000     0.185850000000     0.507230000000    -0.192471   
N30      N      0.335130000000     0.187980000000     0.270160000000    -0.192411   
N31      N      0.374080000000     0.119430000000     0.599460000000    -0.192524   
N32      N      0.450430000000     0.042410000000     0.509970000000    -0.192433   
N33      N      0.115070000000     0.372950000000     0.844010000000    -0.192526   
N34      N      0.038640000000     0.449930000000     0.933220000000    -0.192281   
N35      N      0.289460000000     0.214240000000     0.678250000000    -0.192502   
N36      N      0.212240000000     0.290020000000     0.768890000000    -0.192486   
N37      N      0.479530000000     0.478360000000     0.840750000000    -0.192645   
N38      N      0.476760000000     0.482270000000     0.603730000000    -0.192634   
N39      N      0.515570000000     0.520950000000     0.103730000000    -0.192649   
N40      N      0.518420000000     0.518250000000     0.340470000000    -0.192634   
N41      N      0.848570000000     0.183510000000     0.769180000000    -0.192726   
N42      N      0.852930000000     0.180670000000     0.006030000000    -0.192523   
N43      N      0.809820000000     0.145970000000     0.505540000000    -0.192676   
N44      N      0.807260000000     0.148500000000     0.268680000000    -0.192661   
N45      N      0.144180000000     0.330780000000     0.674770000000    -0.192651   
N46      N      0.140780000000     0.324140000000     0.437910000000    -0.192624   
N47      N      0.186310000000     0.337410000000     0.175230000000    -0.192702   
N48      N      0.183060000000     0.331780000000     0.938350000000    -0.192689   
N49      N      0.074070000000     0.285580000000     0.265690000000    -0.192774   
N50      N      0.919750000000     0.208700000000     0.178450000000    -0.192889   
N51      N      0.407660000000     0.454210000000     0.432960000000    -0.192911   
N52      N      0.252840000000     0.375780000000     0.347560000000    -0.192841   
N53      N      0.517650000000     0.003050000000     0.838500000000    -0.192655   
N54      N      0.514670000000     0.996070000000     0.601460000000    -0.192538   
N55      N      0.478540000000     0.002590000000     0.338450000000    -0.192702   
N56      N      0.475790000000     0.997260000000     0.101690000000    -0.192567   
N57      N      0.741090000000     0.120520000000     0.096210000000    -0.193014   
N58      N      0.586620000000     0.044180000000     0.009560000000    -0.192812   
N59      N      0.183700000000     0.850250000000     0.673380000000    -0.19257    
N60      N      0.181160000000     0.854040000000     0.436470000000    -0.192525   
N61      N      0.143560000000     0.812110000000     0.936710000000    -0.192498   
N62      N      0.146300000000     0.809600000000     0.173710000000    -0.192494   
N63      N      0.253450000000     0.879000000000     0.843360000000    -0.192727   
N64      N      0.407200000000     0.956860000000     0.930980000000    -0.192826   
N65      N      0.809620000000     0.662200000000     0.769070000000    -0.192408   
N66      N      0.812590000000     0.668420000000     0.006110000000    -0.192301   
N67      N      0.852330000000     0.667570000000     0.506140000000    -0.192462   
N68      N      0.849800000000     0.662900000000     0.269110000000    -0.192424   
N69      N      0.741190000000     0.622660000000     0.598020000000    -0.19281    
N70      N      0.587250000000     0.546610000000     0.510870000000    -0.192669   
N71      N      0.920440000000     0.706690000000     0.677290000000    -0.192748   
N72      N      0.073710000000     0.783140000000     0.766680000000    -0.192726   
O1       O      0.877820000000     0.708890000000     0.652360000000    -0.398493   
O2       O      0.787260000000     0.666710000000     0.615420000000    -0.397376   
O3       O      0.820490000000     0.685960000000     0.699770000000    -0.397299   
O4       O      0.844770000000     0.689840000000     0.568920000000    -0.398565   
O5       O      0.841180000000     0.643520000000     0.575290000000    -0.396598   
O6       O      0.816970000000     0.639680000000     0.706320000000    -0.397835   
O7       O      0.783850000000     0.620520000000     0.622860000000    -0.398447   
O8       O      0.874400000000     0.662690000000     0.659670000000    -0.397543   
O9       O      0.116310000000     0.827960000000     0.791490000000    -0.398645   
O10      O      0.207130000000     0.876720000000     0.826770000000    -0.397549   
O11      O      0.173100000000     0.862760000000     0.743110000000    -0.397396   
O12      O      0.150140000000     0.841900000000     0.874210000000    -0.398895   
O13      O      0.154050000000     0.799390000000     0.866990000000    -0.396662   
O14      O      0.177050000000     0.820280000000     0.735750000000    -0.398195   
O15      O      0.210860000000     0.834160000000     0.818570000000    -0.398429   
O16      O      0.120020000000     0.785400000000     0.783220000000    -0.397435   
O17      O      0.543020000000     0.045100000000     0.986530000000    -0.399258   
O18      O      0.452960000000     0.001380000000     0.947610000000    -0.39892    
O19      O      0.485460000000     0.020780000000     0.032330000000    -0.397945   
O20      O      0.510780000000     0.025660000000     0.901650000000    -0.39705    
O21      O      0.507050000000     0.979250000000     0.907600000000    -0.398164   
O22      O      0.484430000000     0.975650000000     0.039010000000    -0.398334   
O23      O      0.450250000000     0.955590000000     0.956400000000    -0.397667   
O24      O      0.541600000000     0.999640000000     0.990110000000    -0.395978   
O25      O      0.208780000000     0.375850000000     0.324360000000    -0.3981     
O26      O      0.118460000000     0.330410000000     0.285870000000    -0.397619   
O27      O      0.150900000000     0.349100000000     0.369840000000    -0.399437   
O28      O      0.176720000000     0.357330000000     0.239160000000    -0.397262   
O29      O      0.176030000000     0.312260000000     0.243200000000    -0.398822   
O30      O      0.150290000000     0.304070000000     0.374020000000    -0.39667    
O31      O      0.118140000000     0.285460000000     0.288820000000    -0.397824   
O32      O      0.208510000000     0.330920000000     0.327200000000    -0.3972     
O33      O      0.785140000000     0.164600000000     0.119480000000    -0.398255   
O34      O      0.875430000000     0.209290000000     0.158160000000    -0.397511   
O35      O      0.843040000000     0.195640000000     0.074130000000    -0.399373   
O36      O      0.817100000000     0.178080000000     0.204740000000    -0.397329   
O37      O      0.817730000000     0.133660000000     0.200830000000    -0.398636   
O38      O      0.843560000000     0.151170000000     0.070010000000    -0.396602   
O39      O      0.875660000000     0.164620000000     0.155270000000    -0.39807    
O40      O      0.785340000000     0.119910000000     0.116790000000    -0.397505   
O41      O      0.541390000000     0.545280000000     0.494470000000    -0.398113   
O42      O      0.451270000000     0.498810000000     0.455720000000    -0.399083   
O43      O      0.483600000000     0.511700000000     0.540520000000    -0.397472   
O44      O      0.508790000000     0.532100000000     0.409830000000    -0.397731   
O45      O      0.509880000000     0.488030000000     0.403190000000    -0.398371   
O46      O      0.487440000000     0.469090000000     0.534680000000    -0.398692   
O47      O      0.452790000000     0.454820000000     0.452270000000    -0.396395   
O48      O      0.544180000000     0.502240000000     0.485690000000    -0.397445   
O49      O      0.167270000000     0.287440000000     0.793940000000    -0.397767   
O50      O      0.117710000000     0.328980000000     0.828210000000    -0.396483   
O51      O      0.131810000000     0.308390000000     0.745000000000    -0.397341   
O52      O      0.153230000000     0.307780000000     0.876230000000    -0.398964   
O53      O      0.195360000000     0.354390000000     0.868230000000    -0.397038   
O54      O      0.173980000000     0.354960000000     0.736890000000    -0.398669   
O55      O      0.159970000000     0.375370000000     0.819130000000    -0.398394   
O56      O      0.209500000000     0.333870000000     0.785010000000    -0.397142   
O57      O      0.287450000000     0.169620000000     0.652870000000    -0.398142   
O58      O      0.329910000000     0.121350000000     0.616610000000    -0.397031   
O59      O      0.309870000000     0.134960000000     0.700640000000    -0.397483   
O60      O      0.307250000000     0.156000000000     0.569760000000    -0.398884   
O61      O      0.353580000000     0.198620000000     0.576870000000    -0.396353   
O62      O      0.356160000000     0.177600000000     0.708010000000    -0.397651   
O63      O      0.376080000000     0.164040000000     0.624850000000    -0.397788   
O64      O      0.333610000000     0.212330000000     0.660970000000    -0.396882   
O65      O      0.994700000000     0.452360000000     0.949990000000    -0.396507   
O66      O      0.952900000000     0.501440000000     0.985270000000    -0.397883   
O67      O      0.972730000000     0.487390000000     0.902480000000    -0.39843    
O68      O      0.974830000000     0.466510000000     0.033710000000    -0.396892   
O69      O      0.021340000000     0.508880000000     0.040920000000    -0.399005   
O70      O      0.019160000000     0.529850000000     0.909820000000    -0.397523   
O71      O      0.999220000000     0.543910000000     0.993620000000    -0.396073   
O72      O      0.041040000000     0.494850000000     0.958040000000    -0.397634   
O73      O      0.661680000000     0.786140000000     0.280870000000    -0.397193   
O74      O      0.618260000000     0.832560000000     0.321450000000    -0.398195   
O75      O      0.636580000000     0.819420000000     0.235920000000    -0.397179   
O76      O      0.643210000000     0.799470000000     0.366220000000    -0.397588   
O77      O      0.688280000000     0.843710000000     0.372080000000    -0.397331   
O78      O      0.683020000000     0.862150000000     0.240710000000    -0.397777   
O79      O      0.663710000000     0.876650000000     0.323840000000    -0.396015   
O80      O      0.707500000000     0.829290000000     0.288830000000    -0.3968     
O81      O      0.785690000000     0.664100000000     0.159740000000    -0.396568   
O82      O      0.833790000000     0.621520000000     0.122920000000    -0.39751    
O83      O      0.819890000000     0.640730000000     0.206330000000    -0.398346   
O84      O      0.799580000000     0.644690000000     0.075420000000    -0.397087   
O85      O      0.842460000000     0.690870000000     0.068890000000    -0.397764   
O86      O      0.862740000000     0.686950000000     0.199960000000    -0.396415   
O87      O      0.876700000000     0.667620000000     0.115640000000    -0.396526   
O88      O      0.828580000000     0.710190000000     0.152310000000    -0.397509   
O89      O      0.498050000000     0.954420000000     0.453030000000    -0.398988   
O90      O      0.451710000000     0.998000000000     0.492670000000    -0.39762    
O91      O      0.464760000000     0.978900000000     0.407680000000    -0.397384   
O92      O      0.485300000000     0.973590000000     0.538170000000    -0.397516   
O93      O      0.527980000000     0.020000000000     0.532460000000    -0.398565   
O94      O      0.508840000000     0.024040000000     0.401170000000    -0.398114   
O95      O      0.494760000000     0.043830000000     0.484140000000    -0.396624   
O96      O      0.542110000000     0.999860000000     0.449590000000    -0.39504    
O97      O      0.331290000000     0.121630000000     0.161750000000    -0.39757    
O98      O      0.375080000000     0.211410000000     0.121130000000    -0.398604   
O99      O      0.356580000000     0.179980000000     0.206640000000    -0.397536   
O100     O      0.349960000000     0.153390000000     0.076420000000    -0.397753   
O101     O      0.305010000000     0.152810000000     0.070370000000    -0.397195   
O102     O      0.310210000000     0.176450000000     0.201790000000    -0.397581   
O103     O      0.329720000000     0.210290000000     0.118650000000    -0.396113   
O104     O      0.285550000000     0.119160000000     0.153630000000    -0.396968   
O105     O      0.496030000000     0.453330000000     0.989230000000    -0.399208   
O106     O      0.542460000000     0.543220000000     0.949540000000    -0.398272   
O107     O      0.529360000000     0.511060000000     0.034520000000    -0.397892   
O108     O      0.508860000000     0.485250000000     0.904080000000    -0.397604   
O109     O      0.466220000000     0.489080000000     0.909680000000    -0.398428   
O110     O      0.485280000000     0.512160000000     0.041000000000    -0.398066   
O111     O      0.499420000000     0.546050000000     0.958060000000    -0.39724    
O112     O      0.452010000000     0.454810000000     0.992520000000    -0.395991   
O113     O      0.162820000000     0.786310000000     0.322830000000    -0.398821   
O114     O      0.208610000000     0.876060000000     0.282190000000    -0.397868   
O115     O      0.195510000000     0.844370000000     0.367560000000    -0.397872   
O116     O      0.175740000000     0.817700000000     0.237310000000    -0.397475   
O117     O      0.132800000000     0.821060000000     0.242000000000    -0.397788   
O118     O      0.151070000000     0.844840000000     0.373340000000    -0.397392   
O119     O      0.165270000000     0.878410000000     0.290020000000    -0.396878   
O120     O      0.118520000000     0.787290000000     0.325180000000    -0.396102   
O121     O      0.042380000000     0.544110000000     0.453760000000    -0.398513   
O122     O      0.999070000000     0.454400000000     0.494480000000    -0.397427   
O123     O      0.017310000000     0.486040000000     0.409040000000    -0.397748   
O124     O      0.024110000000     0.512700000000     0.539380000000    -0.396802   
O125     O      0.977700000000     0.509080000000     0.534560000000    -0.397877   
O126     O      0.972190000000     0.485150000000     0.403390000000    -0.398114   
O127     O      0.953210000000     0.451730000000     0.486800000000    -0.397109   
O128     O      0.996920000000     0.542770000000     0.451300000000    -0.395489   
O129     O      0.825660000000     0.117350000000     0.649850000000    -0.398002   
O130     O      0.874920000000     0.208460000000     0.615810000000    -0.396817   
O131     O      0.860950000000     0.173670000000     0.698900000000    -0.397812   
O132     O      0.839620000000     0.151820000000     0.567700000000    -0.399279   
O133     O      0.797410000000     0.156200000000     0.575650000000    -0.396746   
O134     O      0.818670000000     0.177870000000     0.707130000000    -0.398467   
O135     O      0.832580000000     0.212470000000     0.625010000000    -0.398303   
O136     O      0.783310000000     0.121380000000     0.658750000000    -0.397286   
O137     O      0.663870000000     0.788390000000     0.825820000000    -0.397339   
O138     O      0.706040000000     0.879100000000     0.789720000000    -0.398488   
O139     O      0.686300000000     0.845580000000     0.872770000000    -0.398816   
O140     O      0.683820000000     0.822100000000     0.741860000000    -0.397399   
O141     O      0.637460000000     0.818340000000     0.734480000000    -0.397764   
O142     O      0.639890000000     0.841720000000     0.865640000000    -0.396416   
O143     O      0.659810000000     0.875520000000     0.781620000000    -0.397029   
O144     O      0.617630000000     0.784770000000     0.817550000000    -0.398149   


