data_structure

_audit_creation_method RASPA-1.0
_audit_creation_date 2023-5-19
_audit_author_name 'Poobodin Mano'

_cell_length_a    39.0343
_cell_length_b    39.0388
_cell_length_c    39.0438
_cell_angle_alpha 90
_cell_angle_beta  90
_cell_angle_gamma 90
_cell_volume      59497

_symmetry_cell_setting          triclinic
_symmetry_space_group_name_Hall 'P 1'
_symmetry_space_group_name_H-M  'P 1'
_symmetry_Int_Tables_number     1

_symmetry_equiv_pos_as_xyz 'x,y,z'

loop_
_atom_site_label
_atom_site_type_symbol
_atom_site_fract_x
_atom_site_fract_y
_atom_site_fract_z
_atom_site_charge
C1       C      0.996490000000     0.063560000000     0.488980000000     0.407876   
C2       C      0.996460000000     0.926470000000     0.488760000000     0.407712   
C3       C      0.928030000000     0.994880000000     0.485350000000     0.407818   
C4       C      0.064880000000     0.994950000000     0.493070000000     0.407838   
C5       C      0.998350000000     0.426620000000     0.500240000000     0.405412   
C6       C      0.998340000000     0.563340000000     0.499500000000     0.405487   
C7       C      0.998070000000     0.494490000000     0.431440000000     0.405341   
C8       C      0.998550000000     0.495350000000     0.568130000000     0.405567   
C9       C      0.564980000000     0.998600000000     0.494940000000     0.405302   
C10      C      0.428260000000     0.997770000000     0.495160000000     0.4054     
C11      C      0.496830000000     0.994260000000     0.426870000000     0.407838   
C12      C      0.496410000000     0.002290000000     0.563690000000     0.407655   
C13      C      0.496780000000     0.999030000000     0.063710000000     0.405832   
C14      C      0.496930000000     0.000900000000     0.927040000000     0.405569   
C15      C      0.496530000000     0.068370000000     0.996500000000     0.405596   
C16      C      0.497250000000     0.931690000000     0.994660000000     0.405744   
C17      C      0.065440000000     0.492010000000     0.000440000000     0.408087   
C18      C      0.928580000000     0.494620000000     0.999130000000     0.405134   
C19      C      0.996350000000     0.489700000000     0.068140000000     0.407301   
C20      C      0.997330000000     0.497240000000     0.931300000000     0.408235   
C21      C      0.428540000000     0.501270000000     0.999810000000     0.405177   
C22      C      0.565350000000     0.498180000000     0.003080000000     0.407784   
C23      C      0.495380000000     0.431560000000     0.004940000000     0.407516   
C24      C      0.498590000000     0.568370000000     0.997340000000     0.408138   
C25      C      0.655600000000     0.493290000000     0.032730000000    -0.13105    
C26      C      0.875260000000     0.465010000000     0.997410000000     0.0711923  
C27      C      0.875970000000     0.525680000000     0.999890000000     0.0709553  
C28      C      0.839500000000     0.464960000000     0.997370000000    -0.0939947  
C29      C      0.764910000000     0.520220000000     0.979700000000    -0.037715   
C30      C      0.729090000000     0.520400000000     0.980320000000    -0.0331464  
C31      C      0.783430000000     0.496250000000     0.999190000000    -0.00642846 
C32      C      0.840180000000     0.526550000000     0.999770000000    -0.093764   
C33      C      0.711020000000     0.496770000000     0.000610000000    -0.0143206  
C34      C      0.653790000000     0.500890000000     0.971840000000    -0.103907   
C35      C      0.729560000000     0.472790000000     0.020050000000    -0.0331828  
C36      C      0.618110000000     0.500760000000     0.973340000000     0.0742077  
C37      C      0.619560000000     0.492950000000     0.033840000000     0.149957   
C38      C      0.765330000000     0.472510000000     0.019320000000    -0.0377583  
C39      C      0.821490000000     0.495950000000     0.998650000000     0.0482967  
C40      C      0.672970000000     0.497140000000     0.001710000000     0.0645924  
C41      C      0.603370000000     0.486720000000     0.068580000000    -0.216275   
C42      C      0.156060000000     0.463140000000     0.003200000000    -0.130938   
C43      C      0.375910000000     0.500110000000     0.968760000000     0.0710961  
C44      C      0.375240000000     0.502640000000     0.029430000000     0.0713643  
C45      C      0.340100000000     0.499570000000     0.967970000000    -0.0935182  
C46      C      0.264290000000     0.517870000000     0.974740000000    -0.03766    
C47      C      0.228480000000     0.516560000000     0.974960000000    -0.033129   
C48      C      0.283440000000     0.498730000000     0.998490000000    -0.00642367 
C49      C      0.339510000000     0.502000000000     0.029550000000    -0.094088   
C50      C      0.211070000000     0.495890000000     0.998780000000    -0.0143325  
C51      C      0.153500000000     0.524050000000     0.995910000000    -0.103862   
C52      C      0.230250000000     0.476680000000     0.022430000000    -0.0331871  
C53      C      0.117860000000     0.522210000000     0.996840000000     0.0744656  
C54      C      0.120030000000     0.461680000000     0.004330000000     0.149916   
C55      C      0.265990000000     0.478110000000     0.022310000000    -0.0377602  
C56      C      0.321470000000     0.500260000000     0.998620000000     0.0483577  
C57      C      0.173040000000     0.494350000000     0.999090000000     0.0645855  
C58      C      0.104300000000     0.426760000000     0.010680000000    -0.216454   
C59      C      0.502900000000     0.657900000000     0.965260000000    -0.131065   
C60      C      0.467250000000     0.878500000000     0.994800000000     0.0719275  
C61      C      0.527980000000     0.878960000000     0.994840000000     0.0719205  
C62      C      0.467070000000     0.842720000000     0.995160000000    -0.0934521  
C63      C      0.475170000000     0.768120000000     0.016130000000    -0.0375593  
C64      C      0.475500000000     0.732320000000     0.016330000000    -0.0328931  
C65      C      0.498380000000     0.786540000000     0.995640000000    -0.00614791 
C66      C      0.528720000000     0.843200000000     0.995150000000    -0.0935292  
C67      C      0.498970000000     0.714110000000     0.995980000000    -0.0143164  
C68      C      0.495620000000     0.657610000000     0.026200000000    -0.103799   
C69      C      0.522230000000     0.732540000000     0.975560000000    -0.0329763  
C70      C      0.495850000000     0.621920000000     0.025600000000     0.0745379  
C71      C      0.503300000000     0.621830000000     0.965050000000     0.150366   
C72      C      0.521940000000     0.768320000000     0.975400000000    -0.0377746  
C73      C      0.498040000000     0.824610000000     0.995350000000     0.0485846  
C74      C      0.499100000000     0.676040000000     0.995840000000     0.0648199  
C75      C      0.508740000000     0.604840000000     0.930560000000    -0.216981   
C76      C      0.492620000000     0.341480000000     0.035910000000    -0.130704   
C77      C      0.465950000000     0.121180000000     0.998450000000     0.0718728  
C78      C      0.526680000000     0.121440000000     0.997690000000     0.0719095  
C79      C      0.465360000000     0.156930000000     0.999820000000    -0.0935445  
C80      C      0.473100000000     0.230920000000     0.023080000000    -0.0377658  
C81      C      0.472980000000     0.266710000000     0.024340000000    -0.033101   
C82      C      0.496000000000     0.213430000000     0.001470000000    -0.00620866 
C83      C      0.527000000000     0.157190000000     0.998930000000    -0.0935654  
C84      C      0.495670000000     0.285810000000     0.003910000000    -0.0142528  
C85      C      0.497570000000     0.342800000000     0.974750000000    -0.103825   
C86      C      0.518570000000     0.268310000000     0.982330000000    -0.0331067  
C87      C      0.497280000000     0.378430000000     0.975930000000     0.0745586  
C88      C      0.492320000000     0.377580000000     0.036730000000     0.149073   
C89      C      0.518770000000     0.232540000000     0.981160000000    -0.0376013  
C90      C      0.496120000000     0.175390000000     0.000080000000     0.0486304  
C91      C      0.495300000000     0.323860000000     0.004890000000     0.0645033  
C92      C      0.488880000000     0.394090000000     0.071690000000    -0.216283   
C93      C      0.493780000000     0.034180000000     0.653400000000    -0.130767   
C94      C      0.466590000000     0.001620000000     0.874070000000     0.0718734  
C95      C      0.527320000000     0.001200000000     0.874070000000     0.0718069  
C96      C      0.466130000000     0.001980000000     0.838300000000    -0.093366   
C97      C      0.519940000000     0.981680000000     0.763320000000    -0.0375802  
C98      C      0.519850000000     0.981990000000     0.727520000000    -0.0329791  
C99      C      0.496940000000     0.002260000000     0.781880000000    -0.00605399 
C100     C      0.527780000000     0.001450000000     0.838300000000    -0.0933819  
C101     C      0.496850000000     0.003010000000     0.709460000000    -0.0141458  
C102     C      0.499470000000     0.973080000000     0.652800000000    -0.103713   
C103     C      0.473880000000     0.023610000000     0.728010000000    -0.0329487  
C104     C      0.499120000000     0.973840000000     0.617130000000     0.074735   
C105     C      0.493370000000     0.034590000000     0.617310000000     0.150323   
C106     C      0.473890000000     0.023210000000     0.763810000000    -0.037722   
C107     C      0.496960000000     0.001880000000     0.819950000000     0.0485119  
C108     C      0.496770000000     0.003420000000     0.671380000000     0.0648593  
C109     C      0.489200000000     0.069320000000     0.600470000000    -0.217351   
C110     C      0.499370000000     0.962700000000     0.337040000000    -0.130963   
C111     C      0.466320000000     0.998140000000     0.116600000000     0.0719629  
C112     C      0.527050000000     0.997820000000     0.116710000000     0.071922   
C113     C      0.465780000000     0.997380000000     0.152350000000    -0.0936788  
C114     C      0.473450000000     0.016220000000     0.227510000000    -0.0375803  
C115     C      0.473450000000     0.015470000000     0.263290000000    -0.0329709  
C116     C      0.496480000000     0.995840000000     0.208780000000    -0.0062517  
C117     C      0.527430000000     0.996950000000     0.152470000000    -0.0935835  
C118     C      0.496390000000     0.994230000000     0.281160000000    -0.0143235  
C119     C      0.493940000000     0.023840000000     0.337920000000    -0.10387    
C120     C      0.519360000000     0.973780000000     0.262430000000    -0.0329835  
C121     C      0.494280000000     0.022910000000     0.373560000000     0.0748705  
C122     C      0.499750000000     0.962140000000     0.373120000000     0.15038    
C123     C      0.519440000000     0.974610000000     0.226650000000    -0.0377338  
C124     C      0.496570000000     0.996730000000     0.170740000000     0.048663   
C125     C      0.496500000000     0.993570000000     0.319210000000     0.064862   
C126     C      0.503720000000     0.927320000000     0.389840000000    -0.217373   
C127     C      0.995950000000     0.528900000000     0.841510000000    -0.130953   
C128     C      0.968280000000     0.496080000000     0.621110000000     0.072027   
C129     C      0.029010000000     0.495160000000     0.621040000000     0.0719649  
C130     C      0.967870000000     0.496410000000     0.656860000000    -0.0935677  
C131     C      0.021400000000     0.475690000000     0.731840000000    -0.0375677  
C132     C      0.021260000000     0.476100000000     0.767640000000    -0.0329175  
C133     C      0.998700000000     0.496560000000     0.713220000000    -0.00618685 
C134     C      0.029510000000     0.495360000000     0.656810000000    -0.0934025  
C135     C      0.998540000000     0.497500000000     0.785600000000    -0.0143259  
C136     C      0.000410000000     0.467690000000     0.842320000000    -0.10373    
C137     C      0.975890000000     0.518390000000     0.766970000000    -0.0329553  
C138     C      0.999860000000     0.468570000000     0.877980000000     0.074488   
C139     C      0.995360000000     0.529430000000     0.877580000000     0.150223   
C140     C      0.975940000000     0.517890000000     0.731200000000    -0.0377212  
C141     C      0.998700000000     0.496060000000     0.675170000000     0.0486082  
C142     C      0.998390000000     0.498020000000     0.823650000000     0.0647913  
C143     C      0.991820000000     0.564290000000     0.894290000000    -0.217051   
C144     C      0.994290000000     0.458420000000     0.158110000000    -0.130641   
C145     C      0.967490000000     0.493250000000     0.378620000000     0.0718236  
C146     C      0.028210000000     0.494230000000     0.378350000000     0.0717206  
C147     C      0.966880000000     0.492490000000     0.342860000000    -0.0934701  
C148     C      0.020120000000     0.512420000000     0.267420000000    -0.0376255  
C149     C      0.019890000000     0.511670000000     0.231630000000    -0.0330963  
C150     C      0.997460000000     0.491780000000     0.286310000000    -0.00625002 
C151     C      0.028520000000     0.493600000000     0.342580000000    -0.0934056  
C152     C      0.997090000000     0.490140000000     0.213910000000    -0.0143595  
C153     C      0.998970000000     0.519600000000     0.157020000000    -0.103687   
C154     C      0.974480000000     0.469440000000     0.232810000000    -0.0331082  
C155     C      0.998570000000     0.518560000000     0.121370000000     0.0742764  
C156     C      0.993920000000     0.457720000000     0.122020000000     0.149047   
C157     C      0.974620000000     0.470290000000     0.268590000000    -0.0378657  
C158     C      0.997620000000     0.492650000000     0.324370000000     0.0483456  
C159     C      0.996820000000     0.489380000000     0.175850000000     0.0643797  
C160     C      0.990700000000     0.422770000000     0.105440000000    -0.216197   
C161     C      0.154560000000     0.993960000000     0.525160000000    -0.131044   
C162     C      0.375570000000     0.967010000000     0.496620000000     0.0713312  
C163     C      0.375030000000     0.027610000000     0.492830000000     0.0711263  
C164     C      0.339810000000     0.966210000000     0.496330000000    -0.0937696  
C165     C      0.264590000000     0.018150000000     0.472140000000    -0.0377452  
C166     C      0.228780000000     0.017790000000     0.472090000000    -0.0331401  
C167     C      0.283110000000     0.996390000000     0.494070000000    -0.00639491 
C168     C      0.339250000000     0.027720000000     0.492420000000    -0.0937514  
C169     C      0.210670000000     0.995730000000     0.494050000000    -0.0144498  
C170     C      0.154060000000     0.996910000000     0.463870000000    -0.104123   
C171     C      0.229190000000     0.973930000000     0.515920000000    -0.0331257  
C172     C      0.118370000000     0.996540000000     0.464590000000     0.0738133  
C173     C      0.118480000000     0.993560000000     0.525530000000     0.150005   
C174     C      0.264980000000     0.974230000000     0.515910000000    -0.0378353  
C175     C      0.321180000000     0.996780000000     0.494220000000     0.0482772  
C176     C      0.172600000000     0.995560000000     0.494330000000     0.0645763  
C177     C      0.101620000000     0.991340000000     0.560440000000    -0.217106   
C178     C      0.837990000000     0.992660000000     0.454350000000    -0.130769   
C179     C      0.618000000000     0.968370000000     0.494640000000     0.071224   
C180     C      0.617840000000     0.029050000000     0.492210000000     0.0713246  
C181     C      0.653720000000     0.967930000000     0.493040000000    -0.0938976  
C182     C      0.729310000000     0.022390000000     0.508050000000    -0.0376562  
C183     C      0.765080000000     0.021990000000     0.506650000000    -0.0331064  
C184     C      0.709990000000     0.998670000000     0.489060000000    -0.00640084 
C185     C      0.653600000000     0.029530000000     0.490690000000    -0.0937256  
C186     C      0.782350000000     0.997960000000     0.486120000000    -0.0143883  
C187     C      0.839320000000     0.000310000000     0.515240000000    -0.103857   
C188     C      0.763020000000     0.974430000000     0.466900000000    -0.0331352  
C189     C      0.874940000000     0.999170000000     0.514160000000     0.0745134  
C190     C      0.874070000000     0.991420000000     0.453650000000     0.149016   
C191     C      0.727260000000     0.974740000000     0.468400000000    -0.0378511  
C192     C      0.671980000000     0.998730000000     0.490950000000     0.0483466  
C193     C      0.820390000000     0.997100000000     0.485180000000     0.0644687  
C194     C      0.890580000000     0.985320000000     0.419060000000    -0.216047   
C195     C      0.998990000000     0.835310000000     0.461300000000    -0.130969   
C196     C      0.968050000000     0.616370000000     0.499920000000     0.0717613  
C197     C      0.028770000000     0.616250000000     0.498850000000     0.0719378  
C198     C      0.967660000000     0.652150000000     0.499710000000    -0.0934202  
C199     C      0.975930000000     0.727450000000     0.518490000000    -0.0376749  
C200     C      0.975760000000     0.763250000000     0.517180000000    -0.0331315  
C201     C      0.998600000000     0.708480000000     0.497910000000    -0.00625633 
C202     C      0.029300000000     0.652020000000     0.498490000000    -0.0935238  
C203     C      0.998130000000     0.780840000000     0.495120000000    -0.0144036  
C204     C      0.995140000000     0.838850000000     0.522440000000    -0.103795   
C205     C      0.020920000000     0.761870000000     0.474700000000    -0.0330948  
C206     C      0.994830000000     0.874460000000     0.519910000000     0.0737516  
C207     C      0.998450000000     0.871310000000     0.459080000000     0.149049   
C208     C      0.021190000000     0.726110000000     0.476110000000    -0.0377615  
C209     C      0.998520000000     0.670430000000     0.498860000000     0.0484716  
C210     C      0.997420000000     0.818840000000     0.492990000000     0.064439   
C211     C      0.999930000000     0.886380000000     0.423320000000    -0.215634   
C212     C      0.999070000000     0.154800000000     0.461840000000    -0.13097    
C213     C      0.028790000000     0.373720000000     0.499840000000     0.0718979  
C214     C      0.968070000000     0.373600000000     0.501020000000     0.0718608  
C215     C      0.029320000000     0.337960000000     0.499540000000    -0.093503   
C216     C      0.021210000000     0.263940000000     0.477040000000    -0.0377799  
C217     C      0.020930000000     0.228190000000     0.475500000000    -0.033093   
C218     C      0.998630000000     0.281500000000     0.498900000000    -0.00626064 
C219     C      0.967680000000     0.337820000000     0.500860000000    -0.093452   
C220     C      0.998120000000     0.209150000000     0.495850000000    -0.0144103  
C221     C      0.995080000000     0.151060000000     0.522960000000    -0.103747   
C222     C      0.975770000000     0.226670000000     0.517970000000    -0.0330612  
C223     C      0.994790000000     0.115450000000     0.520300000000     0.0739668  
C224     C      0.998600000000     0.118820000000     0.459490000000     0.149435   
C225     C      0.975950000000     0.262460000000     0.519410000000    -0.0376656  
C226     C      0.998540000000     0.319540000000     0.499950000000     0.0484473  
C227     C      0.997420000000     0.171170000000     0.493580000000     0.0645343  
C228     C      0.000330000000     0.103870000000     0.423690000000    -0.215924   
Cu1      Cu     0.998200000000     0.995060000000     0.457730000000     0.834499   
Cu2      Cu     0.994700000000     0.994970000000     0.520470000000     0.841063   
Cu3      Cu     0.966730000000     0.494970000000     0.499920000000     0.844733   
Cu4      Cu     0.029920000000     0.494980000000     0.499680000000     0.845178   
Cu5      Cu     0.496830000000     0.966780000000     0.497080000000     0.841581   
Cu6      Cu     0.496420000000     0.029700000000     0.493450000000     0.841243   
Cu7      Cu     0.528470000000     0.000180000000     0.995420000000     0.845577   
Cu8      Cu     0.465270000000     0.999870000000     0.995360000000     0.84482    
Cu9      Cu     0.997510000000     0.524860000000     0.001390000000     0.840728   
Cu10     Cu     0.996370000000     0.462010000000     0.998020000000     0.838387   
Cu11     Cu     0.497590000000     0.498260000000     0.969830000000     0.84084    
Cu12     Cu     0.496180000000     0.501690000000     0.032660000000     0.838507   
H1       H      0.889400000000     0.549970000000     0.001000000000     0.0233945  
H2       H      0.604700000000     0.504030000000     0.949240000000     0.0226601  
H3       H      0.778830000000     0.453930000000     0.034890000000     0.036488   
H4       H      0.715530000000     0.539350000000     0.965250000000     0.0352513  
H5       H      0.666260000000     0.503540000000     0.947190000000     0.0535163  
H6       H      0.778100000000     0.538630000000     0.963680000000     0.0366757  
H7       H      0.670220000000     0.490580000000     0.056190000000     0.0596113  
H8       H      0.827270000000     0.551080000000     0.001130000000     0.0511506  
H9       H      0.826070000000     0.440720000000     0.996020000000     0.0511676  
H10      H      0.716400000000     0.454000000000     0.035650000000     0.0348216  
H11      H      0.888080000000     0.440400000000     0.996380000000     0.0233705  
H12      H      0.585450000000     0.464660000000     0.067290000000     0.0828892  
H13      H      0.622680000000     0.480160000000     0.088450000000     0.0677751  
H14      H      0.589970000000     0.510170000000     0.077470000000     0.0839857  
H15      H      0.388070000000     0.503920000000     0.054030000000     0.0233202  
H16      H      0.104170000000     0.546210000000     0.993980000000     0.023211   
H17      H      0.280000000000     0.462780000000     0.040710000000     0.0364877  
H18      H      0.214410000000     0.531450000000     0.956250000000     0.0355179  
H19      H      0.165670000000     0.548830000000     0.993110000000     0.0537392  
H20      H      0.276970000000     0.534220000000     0.956260000000     0.036924   
H21      H      0.170960000000     0.439810000000     0.005500000000     0.0595455  
H22      H      0.326110000000     0.503120000000     0.053820000000     0.0511476  
H23      H      0.327150000000     0.497930000000     0.943480000000     0.0513405  
H24      H      0.217610000000     0.460800000000     0.041330000000     0.0347931  
H25      H      0.389320000000     0.499200000000     0.944470000000     0.0238223  
H26      H      0.090400000000     0.417940000000     0.987490000000     0.0838907  
H27      H      0.123920000000     0.407010000000     0.016600000000     0.0678175  
H28      H      0.086910000000     0.427740000000     0.033170000000     0.0828876  
H29      H      0.552370000000     0.892260000000     0.994850000000     0.0246746  
H30      H      0.492870000000     0.609180000000     0.050100000000     0.0236402  
H31      H      0.539940000000     0.781700000000     0.959090000000     0.0369092  
H32      H      0.457060000000     0.718880000000     0.032120000000     0.0356629  
H33      H      0.493060000000     0.670660000000     0.050550000000     0.0537781  
H34      H      0.456930000000     0.781390000000     0.032290000000     0.0371539  
H35      H      0.505300000000     0.671920000000     0.941420000000     0.0598548  
H36      H      0.553260000000     0.830260000000     0.995710000000     0.0515585  
H37      H      0.442750000000     0.829370000000     0.994840000000     0.0517171  
H38      H      0.540890000000     0.719290000000     0.959880000000     0.0349358  
H39      H      0.442680000000     0.891440000000     0.994590000000     0.0247523  
H40      H      0.485450000000     0.590370000000     0.923000000000     0.0850801  
H41      H      0.513760000000     0.623730000000     0.909870000000     0.0686129  
H42      H      0.531480000000     0.587770000000     0.931490000000     0.0848289  
H43      H      0.551210000000     0.108430000000     0.997000000000     0.0247455  
H44      H      0.499200000000     0.391490000000     0.951500000000     0.0244001  
H45      H      0.536510000000     0.219860000000     0.964000000000     0.0371584  
H46      H      0.454810000000     0.279440000000     0.041000000000     0.0349807  
H47      H      0.499210000000     0.330160000000     0.950100000000     0.0540555  
H48      H      0.455460000000     0.216940000000     0.039300000000     0.0368511  
H49      H      0.491150000000     0.327030000000     0.059570000000     0.0593527  
H50      H      0.551380000000     0.170430000000     0.999480000000     0.0516375  
H51      H      0.440880000000     0.170000000000     0.000230000000     0.0516115  
H52      H      0.536580000000     0.282280000000     0.966510000000     0.0356264  
H53      H      0.441520000000     0.107970000000     0.998220000000     0.0246208  
H54      H      0.465760000000     0.410640000000     0.072490000000     0.0845183  
H55      H      0.485760000000     0.374870000000     0.092450000000     0.0677849  
H56      H      0.512300000000     0.409030000000     0.077800000000     0.0821897  
H57      H      0.551790000000     0.001000000000     0.887200000000     0.024742   
H58      H      0.501360000000     0.949310000000     0.604300000000     0.0243285  
H59      H      0.456070000000     0.039620000000     0.777330000000     0.0370517  
H60      H      0.538060000000     0.966030000000     0.713970000000     0.0357419  
H61      H      0.501440000000     0.948610000000     0.665730000000     0.0540736  
H62      H      0.537790000000     0.965000000000     0.776470000000     0.0371947  
H63      H      0.492030000000     0.058010000000     0.667560000000     0.0598195  
H64      H      0.552210000000     0.001780000000     0.825140000000     0.0516687  
H65      H      0.441700000000     0.001880000000     0.825140000000     0.051713   
H66      H      0.455590000000     0.039820000000     0.714870000000     0.0351843  
H67      H      0.442110000000     0.001590000000     0.887180000000     0.0248009  
H68      H      0.466080000000     0.069480000000     0.583900000000     0.0853307  
H69      H      0.485620000000     0.090200000000     0.619470000000     0.0688983  
H70      H      0.512500000000     0.075790000000     0.585500000000     0.0852595  
H71      H      0.551550000000     0.998060000000     0.103640000000     0.0246775  
H72      H      0.492130000000     0.047400000000     0.386480000000     0.0242588  
H73      H      0.537280000000     0.958350000000     0.212970000000     0.0369355  
H74      H      0.455240000000     0.031310000000     0.276980000000     0.0355717  
H75      H      0.492100000000     0.048380000000     0.325100000000     0.053993   
H76      H      0.455660000000     0.033090000000     0.214520000000     0.0370361  
H77      H      0.501030000000     0.938940000000     0.322760000000     0.0597874  
H78      H      0.551830000000     0.996890000000     0.165680000000     0.0516473  
H79      H      0.441330000000     0.996830000000     0.165450000000     0.0516253  
H80      H      0.537590000000     0.957400000000     0.275440000000     0.0350526  
H81      H      0.441860000000     0.998480000000     0.103430000000     0.0246476  
H82      H      0.480400000000     0.920940000000     0.404800000000     0.0853423  
H83      H      0.507180000000     0.906490000000     0.370750000000     0.0687536  
H84      H      0.526850000000     0.926980000000     0.406400000000     0.0851614  
H85      H      0.053470000000     0.494770000000     0.607880000000     0.0247883  
H86      H      0.001540000000     0.444040000000     0.890900000000     0.0236603  
H87      H      0.958370000000     0.534510000000     0.717610000000     0.0369999  
H88      H      0.039210000000     0.459910000000     0.781260000000     0.0355677  
H89      H      0.001950000000     0.443140000000     0.829460000000     0.0538359  
H90      H      0.039020000000     0.458730000000     0.718740000000     0.037214   
H91      H      0.994750000000     0.552710000000     0.827260000000     0.0597639  
H92      H      0.053950000000     0.495460000000     0.669960000000     0.0517164  
H93      H      0.943450000000     0.496520000000     0.670050000000     0.051714   
H94      H      0.957840000000     0.534900000000     0.780060000000     0.03515    
H95      H      0.943780000000     0.496280000000     0.608030000000     0.024732   
H96      H      0.015150000000     0.570320000000     0.909400000000     0.084915   
H97      H      0.988810000000     0.585200000000     0.875200000000     0.0685664  
H98      H      0.968590000000     0.565010000000     0.910690000000     0.0851399  
H99      H      0.052740000000     0.494790000000     0.391360000000     0.0246263  
H100     H      0.000340000000     0.543040000000     0.108380000000     0.024366   
H101     H      0.957070000000     0.453830000000     0.282390000000     0.0368387  
H102     H      0.037830000000     0.527710000000     0.217820000000     0.0355046  
H103     H      0.000540000000     0.544210000000     0.169760000000     0.0539449  
H104     H      0.037810000000     0.529490000000     0.280290000000     0.0370342  
H105     H      0.992980000000     0.434690000000     0.172480000000     0.059228   
H106     H      0.052890000000     0.493370000000     0.329310000000     0.0514479  
H107     H      0.942400000000     0.492200000000     0.329800000000     0.051613   
H108     H      0.956380000000     0.452830000000     0.219920000000     0.0349583  
H109     H      0.943070000000     0.493170000000     0.391840000000     0.02471    
H110     H      0.014030000000     0.416970000000     0.090230000000     0.0821764  
H111     H      0.988050000000     0.401900000000     0.124600000000     0.0676761  
H112     H      0.967410000000     0.421750000000     0.089140000000     0.0844607  
H113     H      0.387950000000     0.052160000000     0.491520000000     0.0233784  
H114     H      0.105580000000     0.997620000000     0.439960000000     0.022247   
H115     H      0.278450000000     0.957380000000     0.533360000000     0.0367582  
H116     H      0.215270000000     0.035100000000     0.455140000000     0.0351334  
H117     H      0.167040000000     0.997800000000     0.439360000000     0.0531232  
H118     H      0.277790000000     0.035270000000     0.454750000000     0.0367257  
H119     H      0.168680000000     0.993370000000     0.549060000000     0.0597345  
H120     H      0.325860000000     0.052000000000     0.491190000000     0.0510458  
H121     H      0.326890000000     0.941670000000     0.497340000000     0.0512737  
H122     H      0.216020000000     0.956370000000     0.532890000000     0.0349879  
H123     H      0.388910000000     0.942700000000     0.498170000000     0.0238614  
H124     H      0.085480000000     0.967980000000     0.562070000000     0.0850453  
H125     H      0.120620000000     0.989500000000     0.581550000000     0.0686575  
H126     H      0.086210000000     0.014730000000     0.565370000000     0.0850878  
H127     H      0.604660000000     0.053490000000     0.491700000000     0.0237958  
H128     H      0.888040000000     0.002010000000     0.538490000000     0.0241519  
H129     H      0.713100000000     0.956370000000     0.453180000000     0.036498   
H130     H      0.779250000000     0.040640000000     0.521520000000     0.0355435  
H131     H      0.826680000000     0.003300000000     0.539760000000     0.0539564  
H132     H      0.716800000000     0.040950000000     0.524430000000     0.0369382  
H133     H      0.823550000000     0.990330000000     0.430750000000     0.059262   
H134     H      0.666690000000     0.053920000000     0.488780000000     0.0513177  
H135     H      0.666950000000     0.943540000000     0.493800000000     0.0511683  
H136     H      0.775570000000     0.955400000000     0.451080000000     0.0347452  
H137     H      0.604960000000     0.943900000000     0.496230000000     0.0234067  
H138     H      0.907290000000     0.962320000000     0.420070000000     0.082251   
H139     H      0.871350000000     0.980400000000     0.398660000000     0.0672787  
H140     H      0.905380000000     0.008260000000     0.411110000000     0.0824291  
H141     H      0.053230000000     0.603090000000     0.498580000000     0.0247333  
H142     H      0.993270000000     0.888480000000     0.543830000000     0.0234019  
H143     H      0.038750000000     0.712260000000     0.459700000000     0.0369501  
H144     H      0.957730000000     0.777140000000     0.533050000000     0.0355178  
H145     H      0.994130000000     0.827080000000     0.547550000000     0.0535863  
H146     H      0.958440000000     0.714630000000     0.535800000000     0.0370685  
H147     H      0.000150000000     0.820000000000     0.438170000000     0.0595498  
H148     H      0.053750000000     0.665130000000     0.498260000000     0.0516693  
H149     H      0.943260000000     0.665370000000     0.499620000000     0.0515949  
H150     H      0.038720000000     0.774680000000     0.457700000000     0.0350709  
H151     H      0.943560000000     0.603280000000     0.500370000000     0.0247169  
H152     H      0.023490000000     0.902020000000     0.420240000000     0.0838395  
H153     H      0.000840000000     0.866320000000     0.403130000000     0.067389   
H154     H      0.976640000000     0.901880000000     0.418230000000     0.0820653  
H155     H      0.943570000000     0.386680000000     0.501480000000     0.024692   
H156     H      0.993160000000     0.101350000000     0.544170000000     0.0235241  
H157     H      0.958460000000     0.275230000000     0.536760000000     0.0371376  
H158     H      0.038740000000     0.215440000000     0.458470000000     0.034967   
H159     H      0.994010000000     0.162740000000     0.548110000000     0.0536593  
H160     H      0.038770000000     0.277840000000     0.460670000000     0.0368588  
H161     H      0.000290000000     0.170200000000     0.438760000000     0.059518   
H162     H      0.943280000000     0.324600000000     0.500820000000     0.0516055  
H163     H      0.053770000000     0.324840000000     0.499270000000     0.0516059  
H164     H      0.957720000000     0.212740000000     0.533780000000     0.0355508  
H165     H      0.053240000000     0.386880000000     0.499490000000     0.0246994  
H166     H      0.977010000000     0.088470000000     0.418360000000     0.0831927  
H167     H      0.001480000000     0.123990000000     0.403590000000     0.0675824  
H168     H      0.023840000000     0.088150000000     0.420750000000     0.0838618  
N1       N      0.600740000000     0.497230000000     0.003870000000    -0.207371   
N2       N      0.893410000000     0.495130000000     0.998800000000    -0.19427    
N3       N      0.100850000000     0.491500000000     0.000620000000    -0.207332   
N4       N      0.393370000000     0.501440000000     0.999290000000    -0.194164   
N5       N      0.499340000000     0.603750000000     0.995530000000    -0.207137   
N6       N      0.497480000000     0.896520000000     0.994700000000    -0.193831   
N7       N      0.494910000000     0.396140000000     0.006390000000    -0.206951   
N8       N      0.496380000000     0.103530000000     0.997480000000    -0.193792   
N9       N      0.496270000000     0.004060000000     0.599080000000    -0.206819   
N10      N      0.496950000000     0.001250000000     0.891870000000    -0.193711   
N11      N      0.496980000000     0.992590000000     0.391470000000    -0.206932   
N12      N      0.496720000000     0.998360000000     0.098870000000    -0.193872   
N13      N      0.997490000000     0.498900000000     0.895910000000    -0.207093   
N14      N      0.998620000000     0.495530000000     0.603290000000    -0.193855   
N15      N      0.996220000000     0.488150000000     0.103560000000    -0.206843   
N16      N      0.997920000000     0.494030000000     0.396280000000    -0.193803   
N17      N      0.100290000000     0.994980000000     0.494880000000    -0.207231   
N18      N      0.393100000000     0.997480000000     0.494900000000    -0.194325   
N19      N      0.892630000000     0.995070000000     0.483870000000    -0.207182   
N20      N      0.600140000000     0.998690000000     0.494060000000    -0.194251   
N21      N      0.996580000000     0.891020000000     0.488760000000    -0.207076   
N22      N      0.998380000000     0.598510000000     0.499430000000    -0.193799   
N23      N      0.996630000000     0.099010000000     0.489100000000    -0.206991   
N24      N      0.998390000000     0.391450000000     0.500400000000    -0.19382    
O1       O      0.997990000000     0.046870000000     0.460780000000    -0.406171   
O2       O      0.998110000000     0.943240000000     0.460620000000    -0.406863   
O3       O      0.946110000000     0.994970000000     0.457930000000    -0.405353   
O4       O      0.049950000000     0.995120000000     0.463700000000    -0.400436   
O5       O      0.046650000000     0.994900000000     0.520350000000    -0.405558   
O6       O      0.943090000000     0.995080000000     0.514620000000    -0.400224   
O7       O      0.994800000000     0.942930000000     0.517260000000    -0.399386   
O8       O      0.994940000000     0.047010000000     0.517440000000    -0.398984   
O9       O      0.969800000000     0.443020000000     0.500310000000    -0.398109   
O10      O      0.969790000000     0.546940000000     0.499600000000    -0.398018   
O11      O      0.969600000000     0.494560000000     0.447970000000    -0.398254   
O12      O      0.969960000000     0.495350000000     0.551810000000    -0.39854    
O13      O      0.027040000000     0.495190000000     0.551640000000    -0.398162   
O14      O      0.026670000000     0.494730000000     0.447750000000    -0.398202   
O15      O      0.026860000000     0.546910000000     0.499460000000    -0.398478   
O16      O      0.026870000000     0.443060000000     0.499930000000    -0.39847    
O17      O      0.548710000000     0.970050000000     0.496730000000    -0.400208   
O18      O      0.444890000000     0.969430000000     0.496930000000    -0.399603   
O19      O      0.496830000000     0.966910000000     0.445050000000    -0.404368   
O20      O      0.496840000000     0.972900000000     0.548770000000    -0.39863    
O21      O      0.496330000000     0.029590000000     0.545450000000    -0.404668   
O22      O      0.496500000000     0.023610000000     0.441820000000    -0.399368   
O23      O      0.444480000000     0.026370000000     0.493550000000    -0.399619   
O24      O      0.548410000000     0.027010000000     0.493590000000    -0.398971   
O25      O      0.525340000000     0.999450000000     0.047350000000    -0.398445   
O26      O      0.525460000000     0.000820000000     0.943470000000    -0.398232   
O27      O      0.525140000000     0.052090000000     0.996140000000    -0.398529   
O28      O      0.525680000000     0.948270000000     0.994790000000    -0.398905   
O29      O      0.468610000000     0.947930000000     0.994700000000    -0.398138   
O30      O      0.468070000000     0.051830000000     0.996170000000    -0.398276   
O31      O      0.468390000000     0.000610000000     0.943430000000    -0.398374   
O32      O      0.468270000000     0.999150000000     0.047270000000    -0.398654   
O33      O      0.049440000000     0.520790000000     0.001480000000    -0.399484   
O34      O      0.945460000000     0.522830000000     0.000890000000    -0.399073   
O35      O      0.997130000000     0.518980000000     0.053070000000    -0.399282   
O36      O      0.997750000000     0.524590000000     0.949430000000    -0.40523    
O37      O      0.996940000000     0.467910000000     0.946310000000    -0.399345   
O38      O      0.995910000000     0.462300000000     0.050050000000    -0.405608   
O39      O      0.944540000000     0.465890000000     0.997710000000    -0.400198   
O40      O      0.048280000000     0.464080000000     0.998700000000    -0.405816   
O41      O      0.445490000000     0.499460000000     0.971640000000    -0.397876   
O42      O      0.549530000000     0.497390000000     0.974180000000    -0.399619   
O43      O      0.496440000000     0.446650000000     0.975700000000    -0.399977   
O44      O      0.498660000000     0.550180000000     0.970030000000    -0.405457   
O45      O      0.497430000000     0.553440000000     0.026690000000    -0.398897   
O46      O      0.495090000000     0.449630000000     0.032370000000    -0.405264   
O47      O      0.548050000000     0.500320000000     0.030880000000    -0.406215   
O48      O      0.444430000000     0.502590000000     0.028580000000    -0.400604   


