data_structure

_audit_creation_method RASPA-1.0
_audit_creation_date 2023-6-5
_audit_author_name 'Poobodin Mano'

_cell_length_a    63.6181
_cell_length_b    63.6143
_cell_length_c    38.4809
_cell_angle_alpha 89.936
_cell_angle_beta  90.0636
_cell_angle_gamma 119.893
_cell_volume      135014

_symmetry_cell_setting          triclinic
_symmetry_space_group_name_Hall 'P 1'
_symmetry_space_group_name_H-M  'P 1'
_symmetry_Int_Tables_number     1

_symmetry_equiv_pos_as_xyz 'x,y,z'

loop_
_atom_site_label
_atom_site_type_symbol
_atom_site_fract_x
_atom_site_fract_y
_atom_site_fract_z
_atom_site_charge
C1       C      0.917520000000     0.721480000000     0.673350000000     0.405524   
C2       C      0.823620000000     0.673560000000     0.639710000000     0.405882   
C3       C      0.859950000000     0.694190000000     0.724040000000     0.405978   
C4       C      0.881270000000     0.700810000000     0.589010000000     0.405948   
C5       C      0.156990000000     0.839440000000     0.805870000000     0.405203   
C6       C      0.250760000000     0.884140000000     0.840140000000     0.405318   
C7       C      0.214710000000     0.869030000000     0.755570000000     0.405896   
C8       C      0.192980000000     0.854510000000     0.890520000000     0.40596    
C9       C      0.490370000000     0.003940000000     0.972160000000     0.405166   
C10      C      0.583990000000     0.052680000000     0.007240000000     0.40524    
C11      C      0.548320000000     0.032190000000     0.922310000000     0.406137   
C12      C      0.526080000000     0.024450000000     0.057090000000     0.406304   
C13      C      0.156680000000     0.337120000000     0.306680000000     0.405599   
C14      C      0.250350000000     0.385350000000     0.341560000000     0.405265   
C15      C      0.214600000000     0.364370000000     0.256770000000     0.405603   
C16      C      0.192290000000     0.358100000000     0.391430000000     0.405989   
C17      C      0.823360000000     0.172680000000     0.140160000000     0.405786   
C18      C      0.917140000000     0.217780000000     0.174380000000     0.40558    
C19      C      0.881100000000     0.202520000000     0.089770000000     0.405751   
C20      C      0.859410000000     0.187920000000     0.224720000000     0.406245   
C21      C      0.583420000000     0.553000000000     0.509600000000     0.405306   
C22      C      0.489830000000     0.506150000000     0.474230000000     0.405728   
C23      C      0.525430000000     0.521940000000     0.559300000000     0.405326   
C24      C      0.547900000000     0.537280000000     0.424590000000     0.405419   
C25      C      0.178670000000     0.382670000000     0.842130000000     0.405871   
C26      C      0.223750000000     0.334030000000     0.807220000000     0.406      
C27      C      0.209120000000     0.355020000000     0.891990000000     0.405677   
C28      C      0.193210000000     0.361650000000     0.757310000000     0.405869   
C29      C      0.344530000000     0.215700000000     0.673270000000     0.406257   
C30      C      0.393870000000     0.171300000000     0.638620000000     0.405939   
C31      C      0.373060000000     0.186290000000     0.723390000000     0.406025   
C32      C      0.365330000000     0.200750000000     0.588510000000     0.406296   
C33      C      0.060180000000     0.504080000000     0.973380000000     0.405563   
C34      C      0.011990000000     0.549930000000     0.006570000000     0.40456    
C35      C      0.032750000000     0.534320000000     0.922400000000     0.406053   
C36      C      0.039420000000     0.519720000000     0.057530000000     0.406046   
C37      C      0.681580000000     0.885420000000     0.342300000000     0.406179   
C38      C      0.730940000000     0.840900000000     0.308450000000     0.406361   
C39      C      0.709920000000     0.855910000000     0.392950000000     0.406134   
C40      C      0.702700000000     0.870360000000     0.257920000000     0.406137   
C41      C      0.850350000000     0.721520000000     0.173630000000     0.406097   
C42      C      0.894560000000     0.671940000000     0.139310000000     0.406125   
C43      C      0.879570000000     0.692890000000     0.224000000000     0.406154   
C44      C      0.865300000000     0.700640000000     0.089070000000     0.406025   
C45      C      0.560520000000     0.004380000000     0.472940000000     0.405465   
C46      C      0.515030000000     0.052880000000     0.506380000000     0.405919   
C47      C      0.530420000000     0.031970000000     0.422140000000     0.405905   
C48      C      0.545100000000     0.025260000000     0.557240000000     0.405933   
C49      C      0.344770000000     0.147430000000     0.172810000000     0.4055     
C50      C      0.393670000000     0.241300000000     0.139100000000     0.405492   
C51      C      0.372640000000     0.205060000000     0.223460000000     0.405849   
C52      C      0.365770000000     0.183640000000     0.088440000000     0.405784   
C53      C      0.516070000000     0.481400000000     0.008710000000     0.40545    
C54      C      0.563570000000     0.575220000000     0.974540000000     0.405695   
C55      C      0.548480000000     0.539050000000     0.059010000000     0.405182   
C56      C      0.531290000000     0.517620000000     0.924200000000     0.405684   
C57      C      0.225590000000     0.908070000000     0.305750000000     0.405625   
C58      C      0.180750000000     0.814330000000     0.340260000000     0.405475   
C59      C      0.195920000000     0.850290000000     0.255600000000     0.405839   
C60      C      0.210470000000     0.872160000000     0.390500000000     0.405861   
C61      C      0.060590000000     0.574790000000     0.472610000000     0.40547    
C62      C      0.011650000000     0.481080000000     0.507220000000     0.40394    
C63      C      0.032310000000     0.516920000000     0.422540000000     0.406082   
C64      C      0.039930000000     0.538920000000     0.557390000000     0.406114   
C65      C      0.892510000000     0.241660000000     0.639910000000     0.40528    
C66      C      0.848100000000     0.147950000000     0.674520000000     0.405438   
C67      C      0.863060000000     0.183850000000     0.589800000000     0.405901   
C68      C      0.877530000000     0.205800000000     0.724680000000     0.406055   
C69      C      0.683470000000     0.814990000000     0.842750000000     0.4052     
C70      C      0.730820000000     0.908730000000     0.808100000000     0.405619   
C71      C      0.710710000000     0.872850000000     0.892890000000     0.406026   
C72      C      0.703550000000     0.850940000000     0.758020000000     0.405999   
C73      C      0.767420000000     0.944320000000     0.791750000000     0.0722625  
C74      C      0.779600000000     0.967900000000     0.778430000000    -0.0929599  
C75      C      0.766730000000     0.979860000000     0.770480000000     0.0493487  
C76      C      0.741760000000     0.967830000000     0.777050000000    -0.0932559  
C77      C      0.730150000000     0.944270000000     0.790330000000     0.0724517  
C78      C      0.779130000000     0.004560000000     0.754890000000    -0.00680153 
C79      C      0.802330000000     0.022230000000     0.766200000000    -0.0354754  
C80      C      0.813820000000     0.045460000000     0.751630000000    -0.0354077  
C81      C      0.802370000000     0.051580000000     0.725450000000    -0.00689181 
C82      C      0.779270000000     0.033860000000     0.713950000000    -0.035495   
C83      C      0.767800000000     0.010630000000     0.728450000000    -0.0356019  
C84      C      0.814240000000     0.076500000000     0.710710000000     0.0494499  
C85      C      0.839090000000     0.089010000000     0.703210000000    -0.0931427  
C86      C      0.850040000000     0.112710000000     0.690410000000     0.072366   
C87      C      0.812390000000     0.111880000000     0.691860000000     0.0724883  
C88      C      0.800860000000     0.088160000000     0.704540000000    -0.0934283  
C89      C      0.974610000000     0.445770000000     0.522980000000     0.0718862  
C90      C      0.961970000000     0.422010000000     0.535590000000    -0.0919275  
C91      C      0.974390000000     0.409510000000     0.542960000000     0.0474845  
C92      C      0.999410000000     0.421260000000     0.536900000000    -0.0880047  
C93      C      0.011490000000     0.445020000000     0.524400000000     0.0678871  
C94      C      0.961490000000     0.384520000000     0.557430000000    -0.00579098 
C95      C      0.943900000000     0.378180000000     0.583560000000    -0.035837   
C96      C      0.932420000000     0.354900000000     0.598010000000    -0.0351322  
C97      C      0.938250000000     0.337430000000     0.586650000000    -0.00693502 
C98      C      0.955610000000     0.343700000000     0.560190000000    -0.0351075  
C99      C      0.967100000000     0.366960000000     0.545790000000    -0.0358495  
C100     C      0.926380000000     0.312760000000     0.602270000000     0.0495172  
C101     C      0.901590000000     0.300440000000     0.610190000000    -0.093104   
C102     C      0.890630000000     0.276860000000     0.623530000000     0.0723658  
C103     C      0.928220000000     0.277570000000     0.622220000000     0.0726382  
C104     C      0.939740000000     0.301120000000     0.608930000000    -0.0933232  
C105     C      0.060710000000     0.610730000000     0.454910000000     0.0723477  
C106     C      0.072690000000     0.634300000000     0.441670000000    -0.0933609  
C107     C      0.097650000000     0.645920000000     0.435100000000     0.0493152  
C108     C      0.110130000000     0.633570000000     0.443020000000    -0.0931191  
C109     C      0.097570000000     0.609980000000     0.456300000000     0.072304   
C110     C      0.110420000000     0.670630000000     0.419560000000    -0.00687118 
C111     C      0.099340000000     0.676990000000     0.393100000000    -0.0355606  
C112     C      0.111100000000     0.700250000000     0.378740000000    -0.0355903  
C113     C      0.134250000000     0.717740000000     0.390410000000    -0.00694091 
C114     C      0.145480000000     0.711320000000     0.416560000000    -0.0354614  
C115     C      0.133700000000     0.688040000000     0.430980000000    -0.0355361  
C116     C      0.146370000000     0.742740000000     0.375940000000     0.0493756  
C117     C      0.133160000000     0.754600000000     0.369850000000    -0.0934467  
C118     C      0.144880000000     0.778370000000     0.357370000000     0.0724802  
C119     C      0.182380000000     0.778890000000     0.356010000000     0.0723159  
C120     C      0.171240000000     0.755130000000     0.368610000000    -0.0932193  
C121     C      0.684080000000     0.779300000000     0.859900000000     0.0723917  
C122     C      0.672400000000     0.755570000000     0.872610000000    -0.0933799  
C123     C      0.647420000000     0.743540000000     0.879040000000     0.0493446  
C124     C      0.634620000000     0.755660000000     0.871720000000    -0.0931896  
C125     C      0.646850000000     0.779360000000     0.858860000000     0.0722044  
C126     C      0.634910000000     0.718650000000     0.893880000000    -0.00684319 
C127     C      0.640480000000     0.701090000000     0.882100000000    -0.0356744  
C128     C      0.628970000000     0.677800000000     0.896430000000    -0.0353929  
C129     C      0.611670000000     0.671520000000     0.922990000000    -0.00687802 
C130     C      0.606100000000     0.689110000000     0.934760000000    -0.0354805  
C131     C      0.617560000000     0.712380000000     0.920340000000    -0.035606   
C132     C      0.599290000000     0.646650000000     0.938020000000     0.0492594  
C133     C      0.612010000000     0.634250000000     0.943910000000    -0.09313    
C134     C      0.599900000000     0.610550000000     0.956780000000     0.0722219  
C135     C      0.563010000000     0.611220000000     0.959000000000     0.0723101  
C136     C      0.574540000000     0.634890000000     0.946100000000    -0.0931238  
C137     C      0.261370000000     0.943910000000     0.287990000000     0.0723565  
C138     C      0.272930000000     0.967450000000     0.274660000000    -0.093246   
C139     C      0.259640000000     0.979160000000     0.268040000000     0.0492599  
C140     C      0.234850000000     0.966910000000     0.276000000000    -0.0929311  
C141     C      0.223840000000     0.943340000000     0.289370000000     0.0721573  
C142     C      0.271540000000     0.003830000000     0.252380000000    -0.00682844 
C143     C      0.288890000000     0.010070000000     0.225920000000    -0.0356304  
C144     C      0.300360000000     0.033300000000     0.211440000000    -0.0355575  
C145     C      0.294730000000     0.050870000000     0.223000000000    -0.00689906 
C146     C      0.277150000000     0.044570000000     0.249140000000    -0.035537   
C147     C      0.265700000000     0.021320000000     0.263690000000    -0.0355391  
C148     C      0.307590000000     0.075830000000     0.208430000000     0.0493672  
C149     C      0.332610000000     0.087620000000     0.202420000000    -0.0934425  
C150     C      0.344650000000     0.111390000000     0.189930000000     0.0724927  
C151     C      0.307730000000     0.112040000000     0.188350000000     0.0722376  
C152     C      0.295120000000     0.088280000000     0.200970000000    -0.0931697  
C153     C      0.430710000000     0.276600000000     0.123340000000     0.0722463  
C154     C      0.443360000000     0.300350000000     0.110740000000    -0.0932311  
C155     C      0.430990000000     0.312930000000     0.103630000000     0.0494272  
C156     C      0.406010000000     0.301290000000     0.109960000000    -0.0934953  
C157     C      0.393910000000     0.277490000000     0.122360000000     0.0724858  
C158     C      0.443930000000     0.337900000000     0.089130000000    -0.00695199 
C159     C      0.461150000000     0.344000000000     0.062520000000    -0.0355233  
C160     C      0.472880000000     0.367320000000     0.048270000000    -0.0355116  
C161     C      0.467740000000     0.385130000000     0.060380000000    -0.00679481 
C162     C      0.450650000000     0.379050000000     0.087200000000    -0.0355531  
C163     C      0.438860000000     0.355710000000     0.101340000000    -0.0355398  
C164     C      0.480200000000     0.410000000000     0.045300000000     0.0492461  
C165     C      0.504850000000     0.421520000000     0.036550000000    -0.093144   
C166     C      0.516430000000     0.445190000000     0.023600000000     0.0722873  
C167     C      0.479800000000     0.446290000000     0.027110000000     0.0723997  
C168     C      0.467650000000     0.422620000000     0.039990000000    -0.0931721  
C169     C      0.685000000000     0.848000000000     0.703110000000     0.0727677  
C170     C      0.685250000000     0.846780000000     0.666920000000    -0.0941992  
C171     C      0.703240000000     0.844000000000     0.650270000000     0.0500246  
C172     C      0.720280000000     0.841760000000     0.670520000000    -0.0938549  
C173     C      0.719790000000     0.843520000000     0.706670000000     0.0725346  
C174     C      0.705000000000     0.844850000000     0.611930000000    -0.00744347 
C175     C      0.705600000000     0.864300000000     0.593760000000    -0.0355536  
C176     C      0.707770000000     0.865610000000     0.557640000000    -0.0354596  
C177     C      0.708940000000     0.847290000000     0.538940000000    -0.00744482 
C178     C      0.708110000000     0.827690000000     0.557020000000    -0.0357821  
C179     C      0.706440000000     0.826630000000     0.593320000000    -0.0357489  
C180     C      0.710580000000     0.848620000000     0.500590000000     0.050014   
C181     C      0.693850000000     0.829330000000     0.480170000000    -0.0938312  
C182     C      0.694190000000     0.831850000000     0.444070000000     0.072584   
C183     C      0.728240000000     0.871480000000     0.447970000000     0.0727196  
C184     C      0.728110000000     0.869730000000     0.484130000000    -0.0941389  
C185     C      0.684690000000     0.854560000000     0.202820000000     0.0727297  
C186     C      0.685130000000     0.856090000000     0.166620000000    -0.0941624  
C187     C      0.702830000000     0.877080000000     0.150120000000     0.0500439  
C188     C      0.719380000000     0.896500000000     0.170520000000    -0.0939263  
C189     C      0.718720000000     0.894190000000     0.206670000000     0.0726533  
C190     C      0.704820000000     0.878150000000     0.111800000000    -0.00748335 
C191     C      0.705850000000     0.897650000000     0.093180000000    -0.0357026  
C192     C      0.707760000000     0.898450000000     0.056910000000    -0.0358343  
C193     C      0.709240000000     0.880040000000     0.038860000000    -0.00744044 
C194     C      0.708490000000     0.860720000000     0.057570000000    -0.0355314  
C195     C      0.706090000000     0.859680000000     0.093670000000    -0.0354475  
C196     C      0.711020000000     0.880500000000     0.000510000000     0.0502496  
C197     C      0.694100000000     0.882780000000     0.980020000000    -0.0941235  
C198     C      0.694580000000     0.880730000000     0.943930000000     0.072705   
C199     C      0.729120000000     0.875860000000     0.947960000000     0.0728473  
C200     C      0.728870000000     0.877350000000     0.984130000000    -0.0943584  
C201     C      0.852300000000     0.758680000000     0.189520000000     0.0724637  
C202     C      0.841320000000     0.771420000000     0.202290000000    -0.0932844  
C203     C      0.816460000000     0.759130000000     0.209670000000     0.0495874  
C204     C      0.803090000000     0.734150000000     0.203430000000    -0.09344    
C205     C      0.814630000000     0.721960000000     0.190780000000     0.0726101  
C206     C      0.804520000000     0.772100000000     0.224410000000    -0.00687748 
C207     C      0.815830000000     0.789460000000     0.250810000000    -0.035432   
C208     C      0.804130000000     0.800930000000     0.265630000000    -0.0354031  
C209     C      0.780860000000     0.795300000000     0.254370000000    -0.00694018 
C210     C      0.769740000000     0.778200000000     0.227610000000    -0.0353918  
C211     C      0.781420000000     0.766730000000     0.212840000000    -0.035575   
C212     C      0.768120000000     0.807090000000     0.270400000000     0.0495957  
C213     C      0.780580000000     0.831840000000     0.278560000000    -0.0931661  
C214     C      0.767990000000     0.842770000000     0.292110000000     0.0724549  
C215     C      0.731190000000     0.805200000000     0.290660000000     0.0726896  
C216     C      0.743200000000     0.793720000000     0.277130000000    -0.093574   
C217     C      0.644400000000     0.883580000000     0.357690000000     0.072384   
C218     C      0.631620000000     0.894610000000     0.370140000000    -0.0933648  
C219     C      0.643920000000     0.919480000000     0.377470000000     0.0495735  
C220     C      0.668940000000     0.932810000000     0.371520000000    -0.09365    
C221     C      0.681150000000     0.921200000000     0.359200000000     0.0726427  
C222     C      0.630870000000     0.931460000000     0.391810000000    -0.00691249 
C223     C      0.613330000000     0.920180000000     0.417990000000    -0.0355282  
C224     C      0.601670000000     0.931850000000     0.432300000000    -0.0354794  
C225     C      0.607260000000     0.955040000000     0.420710000000    -0.00686029 
C226     C      0.624580000000     0.966150000000     0.394220000000    -0.0354306  
C227     C      0.636260000000     0.954520000000     0.379970000000    -0.0356451  
C228     C      0.595150000000     0.967680000000     0.436110000000     0.0493452  
C229     C      0.570360000000     0.955050000000     0.443980000000    -0.0930699  
C230     C      0.559150000000     0.967490000000     0.457070000000     0.0723624  
C231     C      0.596500000000     0.004520000000     0.455610000000     0.0720905  
C232     C      0.608270000000     0.992650000000     0.442570000000    -0.0930296  
C233     C      0.058290000000     0.541470000000     0.612340000000     0.0727356  
C234     C      0.058050000000     0.542740000000     0.648530000000    -0.094376   
C235     C      0.040340000000     0.546020000000     0.665100000000     0.0500403  
C236     C      0.023590000000     0.548700000000     0.644800000000    -0.0940668  
C237     C      0.024060000000     0.546870000000     0.608650000000     0.0725678  
C238     C      0.038540000000     0.545240000000     0.703440000000    -0.00751036 
C239     C      0.037500000000     0.525630000000     0.721690000000    -0.0355553  
C240     C      0.035220000000     0.524350000000     0.757800000000    -0.0356175  
C241     C      0.034350000000     0.542880000000     0.776390000000    -0.00754924 
C242     C      0.035630000000     0.562650000000     0.758220000000    -0.0357752  
C243     C      0.037420000000     0.563690000000     0.721940000000    -0.035961   
C244     C      0.032580000000     0.541600000000     0.814730000000     0.0500272  
C245     C      0.049420000000     0.560780000000     0.835180000000    -0.094022   
C246     C      0.048910000000     0.558270000000     0.871300000000     0.0725378  
C247     C      0.014490000000     0.518890000000     0.867320000000     0.0726844  
C248     C      0.014780000000     0.520620000000     0.831140000000    -0.0942728  
C249     C      0.057640000000     0.535280000000     0.112590000000     0.0726763  
C250     C      0.057280000000     0.533680000000     0.148780000000    -0.0942759  
C251     C      0.039390000000     0.512800000000     0.165270000000     0.0500722  
C252     C      0.022560000000     0.493560000000     0.144890000000    -0.0941209  
C253     C      0.023150000000     0.495940000000     0.108750000000     0.0726517  
C254     C      0.037540000000     0.511690000000     0.203600000000    -0.00752697 
C255     C      0.036220000000     0.492010000000     0.222060000000    -0.0358039  
C256     C      0.034430000000     0.491190000000     0.258350000000    -0.0358912  
C257     C      0.033360000000     0.509760000000     0.276560000000    -0.00752981 
C258     C      0.034420000000     0.529280000000     0.258000000000    -0.0355338  
C259     C      0.036690000000     0.530340000000     0.221890000000    -0.0356349  
C260     C      0.031660000000     0.509250000000     0.314900000000     0.0500201  
C261     C      0.048440000000     0.506660000000     0.335270000000    -0.0940163  
C262     C      0.048060000000     0.508710000000     0.371380000000     0.07265    
C263     C      0.013890000000     0.514200000000     0.367570000000     0.0726667  
C264     C      0.014040000000     0.512710000000     0.331400000000    -0.0943773  
C265     C      0.012230000000     0.586040000000     0.023500000000     0.0716646  
C266     C      0.000360000000     0.597960000000     0.035940000000    -0.0954632  
C267     C      0.975330000000     0.584960000000     0.041970000000     0.0515251  
C268     C      0.962680000000     0.560110000000     0.034540000000    -0.0938221  
C269     C      0.975120000000     0.548760000000     0.021970000000     0.0730385  
C270     C      0.962660000000     0.597260000000     0.056560000000    -0.00727597 
C271     C      0.968440000000     0.620480000000     0.044950000000    -0.0351789  
C272     C      0.957140000000     0.632410000000     0.059470000000    -0.0354501  
C273     C      0.939830000000     0.621440000000     0.086010000000    -0.0067491  
C274     C      0.933860000000     0.598100000000     0.097370000000    -0.0354758  
C275     C      0.945140000000     0.586140000000     0.082790000000    -0.0351658  
C276     C      0.928120000000     0.634390000000     0.101690000000     0.0495585  
C277     C      0.941590000000     0.659320000000     0.108330000000    -0.0934241  
C278     C      0.930180000000     0.671470000000     0.121650000000     0.0726445  
C279     C      0.892490000000     0.634800000000     0.122990000000     0.0724675  
C280     C      0.903340000000     0.622080000000     0.109630000000    -0.0931455  
C281     C      0.357230000000     0.162480000000     0.774690000000     0.0726821  
C282     C      0.356750000000     0.160180000000     0.810840000000    -0.0939494  
C283     C      0.373440000000     0.179580000000     0.831140000000     0.0500509  
C284     C      0.391110000000     0.200540000000     0.814530000000    -0.0942251  
C285     C      0.391370000000     0.202060000000     0.778330000000     0.0727438  
C286     C      0.371620000000     0.178550000000     0.869480000000    -0.00750618 
C287     C      0.370450000000     0.158970000000     0.888050000000    -0.0357045  
C288     C      0.368630000000     0.158190000000     0.924330000000    -0.0358762  
C289     C      0.367380000000     0.176700000000     0.942440000000    -0.00737603 
C290     C      0.368300000000     0.196120000000     0.923780000000    -0.0355827  
C291     C      0.370610000000     0.197140000000     0.887680000000    -0.0354562  
C292     C      0.365580000000     0.176210000000     0.980780000000     0.0499071  
C293     C      0.382320000000     0.173650000000     0.001290000000    -0.0937051  
C294     C      0.381810000000     0.175630000000     0.037400000000     0.0725118  
C295     C      0.347580000000     0.181030000000     0.033320000000     0.0726962  
C296     C      0.347870000000     0.179590000000     0.997140000000    -0.0941865  
C297     C      0.346980000000     0.185090000000     0.533540000000     0.0727547  
C298     C      0.347170000000     0.186740000000     0.497360000000    -0.094197   
C299     C      0.364760000000     0.207790000000     0.480830000000     0.0500705  
C300     C      0.381460000000     0.227130000000     0.501190000000    -0.0938833  
C301     C      0.381050000000     0.224710000000     0.537320000000     0.0726712  
C302     C      0.366510000000     0.208980000000     0.442480000000    -0.00743529 
C303     C      0.367550000000     0.190500000000     0.424010000000    -0.0355139  
C304     C      0.369860000000     0.191720000000     0.387900000000    -0.0355466  
C305     C      0.370760000000     0.211230000000     0.369530000000    -0.0074339  
C306     C      0.369450000000     0.229610000000     0.387910000000    -0.0357672  
C307     C      0.367630000000     0.228640000000     0.424190000000    -0.035741   
C308     C      0.372640000000     0.211970000000     0.331190000000     0.0500774  
C309     C      0.355900000000     0.214590000000     0.310750000000    -0.0939904  
C310     C      0.356500000000     0.212800000000     0.274610000000     0.0726109  
C311     C      0.390800000000     0.207540000000     0.278560000000     0.07294    
C312     C      0.390440000000     0.208770000000     0.314750000000    -0.0943347  
C313     C      0.516380000000     0.089850000000     0.521700000000     0.0724246  
C314     C      0.505120000000     0.102390000000     0.534220000000    -0.0933317  
C315     C      0.480270000000     0.089840000000     0.541660000000     0.0495299  
C316     C      0.467190000000     0.064810000000     0.535720000000    -0.0934553  
C317     C      0.479020000000     0.052830000000     0.523330000000     0.0725214  
C318     C      0.468070000000     0.102630000000     0.556150000000    -0.00693262 
C319     C      0.479250000000     0.120190000000     0.582330000000    -0.0354723  
C320     C      0.467380000000     0.131580000000     0.596820000000    -0.0354484  
C321     C      0.444070000000     0.125700000000     0.585420000000    -0.00692472 
C322     C      0.433040000000     0.108360000000     0.558920000000    -0.0354838  
C323     C      0.444890000000     0.096950000000     0.544500000000    -0.0355987  
C324     C      0.431210000000     0.137510000000     0.601030000000     0.0494537  
C325     C      0.443590000000     0.162310000000     0.608930000000    -0.0932062  
C326     C      0.430940000000     0.173230000000     0.622260000000     0.0723783  
C327     C      0.394190000000     0.135610000000     0.620970000000     0.072629   
C328     C      0.406270000000     0.124120000000     0.607680000000    -0.0935132  
C329     C      0.097060000000     0.505260000000     0.957990000000     0.0724154  
C330     C      0.109510000000     0.493900000000     0.945530000000    -0.0934042  
C331     C      0.096890000000     0.469020000000     0.938290000000     0.0495803  
C332     C      0.071880000000     0.456010000000     0.944370000000    -0.0935951  
C333     C      0.059980000000     0.467950000000     0.956680000000     0.0725119  
C334     C      0.109590000000     0.456720000000     0.923840000000    -0.00693343 
C335     C      0.127030000000     0.467760000000     0.897490000000    -0.035519   
C336     C      0.138410000000     0.455830000000     0.883120000000    -0.0354892  
C337     C      0.132630000000     0.432610000000     0.894830000000    -0.00684301 
C338     C      0.115380000000     0.421710000000     0.921460000000    -0.0355387  
C339     C      0.103970000000     0.433610000000     0.935750000000    -0.0356337  
C340     C      0.144540000000     0.419760000000     0.879450000000     0.0493975  
C341     C      0.169290000000     0.432250000000     0.871290000000    -0.0931152  
C342     C      0.180320000000     0.419670000000     0.858090000000     0.0723336  
C343     C      0.142900000000     0.382730000000     0.860110000000     0.0725496  
C344     C      0.131300000000     0.394750000000     0.873260000000    -0.0934189  
C345     C      0.307470000000     0.213740000000     0.689750000000     0.0724571  
C346     C      0.294820000000     0.224640000000     0.703190000000    -0.0931884  
C347     C      0.307200000000     0.249430000000     0.711130000000     0.0495066  
C348     C      0.332120000000     0.262850000000     0.704370000000    -0.0934914  
C349     C      0.344190000000     0.251380000000     0.690980000000     0.0726645  
C350     C      0.294360000000     0.261210000000     0.726920000000    -0.0068308  
C351     C      0.271010000000     0.255300000000     0.715720000000    -0.0354648  
C352     C      0.259160000000     0.266670000000     0.730390000000    -0.0354008  
C353     C      0.270420000000     0.284230000000     0.756540000000    -0.00691929 
C354     C      0.293640000000     0.289920000000     0.768010000000    -0.0355527  
C355     C      0.305460000000     0.278530000000     0.753420000000    -0.0354578  
C356     C      0.258280000000     0.297020000000     0.771190000000     0.0496313  
C357     C      0.233460000000     0.284480000000     0.778900000000    -0.0934065  
C358     C      0.222280000000     0.297040000000     0.791640000000     0.0724986  
C359     C      0.259630000000     0.334050000000     0.789640000000     0.0727471  
C360     C      0.271390000000     0.322060000000     0.777040000000    -0.0935213  
C361     C      0.506820000000     0.510470000000     0.873720000000     0.072378   
C362     C      0.503930000000     0.508680000000     0.837620000000    -0.0937206  
C363     C      0.522770000000     0.510730000000     0.816590000000     0.0499069  
C364     C      0.543750000000     0.513380000000     0.832400000000    -0.0940542  
C365     C      0.545860000000     0.514610000000     0.868540000000     0.0726031  
C366     C      0.521210000000     0.511490000000     0.778300000000    -0.00740708 
C367     C      0.539640000000     0.530940000000     0.759720000000    -0.035574   
C368     C      0.538290000000     0.532080000000     0.723620000000    -0.0354913  
C369     C      0.518710000000     0.513570000000     0.705350000000    -0.00742196 
C370     C      0.500330000000     0.493980000000     0.723850000000    -0.0357875  
C371     C      0.501420000000     0.493100000000     0.760140000000    -0.0358122  
C372     C      0.517950000000     0.514700000000     0.666990000000     0.0499636  
C373     C      0.520990000000     0.535630000000     0.650500000000    -0.0941219  
C374     C      0.522390000000     0.537320000000     0.614320000000     0.0726455  
C375     C      0.517580000000     0.497950000000     0.610450000000     0.0724694  
C376     C      0.515630000000     0.495480000000     0.646590000000    -0.0937672  
C377     C      0.570150000000     0.540770000000     0.110440000000     0.0724774  
C378     C      0.572660000000     0.542410000000     0.146540000000    -0.0943678  
C379     C      0.557120000000     0.547090000000     0.166430000000     0.0500209  
C380     C      0.539540000000     0.550480000000     0.149680000000    -0.0941666  
C381     C      0.537160000000     0.548190000000     0.113570000000     0.0725002  
C382     C      0.558190000000     0.546880000000     0.204670000000    -0.00742679 
C383     C      0.550740000000     0.524980000000     0.222200000000    -0.0359522  
C384     C      0.550640000000     0.524310000000     0.258480000000    -0.0350036  
C385     C      0.558490000000     0.545660000000     0.278050000000    -0.0068234  
C386     C      0.566460000000     0.567710000000     0.260120000000    -0.0351904  
C387     C      0.566040000000     0.568240000000     0.223770000000    -0.0362086  
C388     C      0.557550000000     0.544680000000     0.316850000000     0.0489802  
C389     C      0.560840000000     0.527440000000     0.335180000000    -0.0927552  
C390     C      0.557900000000     0.525440000000     0.371220000000     0.0725251  
C391     C      0.550200000000     0.558230000000     0.372130000000     0.0724321  
C392     C      0.552460000000     0.560370000000     0.336010000000    -0.0925021  
C393     C      0.901440000000     0.213860000000     0.775920000000     0.0727384  
C394     C      0.903840000000     0.215830000000     0.812060000000    -0.0939234  
C395     C      0.884490000000     0.213250000000     0.832370000000     0.050173   
C396     C      0.863470000000     0.209900000000     0.815800000000    -0.0942113  
C397     C      0.861850000000     0.208490000000     0.779620000000     0.0728646  
C398     C      0.885640000000     0.212660000000     0.870720000000    -0.00746127 
C399     C      0.905230000000     0.231160000000     0.889060000000    -0.0356981  
C400     C      0.906120000000     0.230300000000     0.925350000000    -0.0357391  
C401     C      0.887720000000     0.210640000000     0.943710000000    -0.00736621 
C402     C      0.868300000000     0.192060000000     0.925290000000    -0.0355338  
C403     C      0.867160000000     0.193160000000     0.889170000000    -0.0354638  
C404     C      0.888360000000     0.209500000000     0.982060000000     0.0499535  
C405     C      0.885220000000     0.188540000000     0.998610000000    -0.0941286  
C406     C      0.883870000000     0.186920000000     0.034800000000     0.0727649  
C407     C      0.888890000000     0.226380000000     0.038530000000     0.0727023  
C408     C      0.890790000000     0.228780000000     0.002400000000    -0.0937069  
C409     C      0.851580000000     0.163990000000     0.275890000000     0.072715   
C410     C      0.849700000000     0.161550000000     0.312010000000    -0.0939174  
C411     C      0.852210000000     0.180840000000     0.332430000000     0.0500588  
C412     C      0.855420000000     0.201840000000     0.315950000000    -0.0940697  
C413     C      0.856750000000     0.203510000000     0.279760000000     0.0726877  
C414     C      0.852860000000     0.179630000000     0.370770000000    -0.00743736 
C415     C      0.872300000000     0.198150000000     0.389250000000    -0.0354087  
C416     C      0.873460000000     0.196940000000     0.425350000000    -0.0354688  
C417     C      0.854980000000     0.177390000000     0.443730000000    -0.00737664 
C418     C      0.835380000000     0.158950000000     0.425350000000    -0.0357633  
C419     C      0.834470000000     0.159920000000     0.389070000000    -0.0357178  
C420     C      0.856140000000     0.176690000000     0.482080000000     0.0500724  
C421     C      0.877170000000     0.180020000000     0.498610000000    -0.0941775  
C422     C      0.878780000000     0.181320000000     0.534800000000     0.0727764  
C423     C      0.839140000000     0.175860000000     0.538580000000     0.0725352  
C424     C      0.836760000000     0.174000000000     0.502440000000    -0.0938323  
C425     C      0.207710000000     0.380290000000     0.702140000000     0.0725533  
C426     C      0.205420000000     0.380300000000     0.666050000000    -0.0928754  
C427     C      0.184410000000     0.362310000000     0.649710000000     0.0491701  
C428     C      0.165810000000     0.344960000000     0.670650000000    -0.0930611  
C429     C      0.168830000000     0.345300000000     0.706640000000     0.0724866  
C430     C      0.182400000000     0.361100000000     0.611080000000    -0.00659585 
C431     C      0.192730000000     0.382390000000     0.590950000000    -0.0354775  
C432     C      0.192380000000     0.381210000000     0.554680000000    -0.0352658  
C433     C      0.181430000000     0.358690000000     0.537510000000    -0.00660766 
C434     C      0.170400000000     0.337390000000     0.557630000000    -0.0354947  
C435     C      0.171000000000     0.338580000000     0.593900000000    -0.0352495  
C436     C      0.182440000000     0.357490000000     0.498900000000     0.0492225  
C437     C      0.181270000000     0.374860000000     0.477810000000    -0.0932827  
C438     C      0.184120000000     0.374510000000     0.441870000000     0.0726197  
C439     C      0.188040000000     0.339490000000     0.446700000000     0.0725154  
C440     C      0.185560000000     0.339470000000     0.482760000000    -0.0929173  
C441     C      0.194020000000     0.336900000000     0.947250000000     0.0727038  
C442     C      0.195930000000     0.337310000000     0.983400000000    -0.0942034  
C443     C      0.216990000000     0.355160000000     0.999590000000     0.0498954  
C444     C      0.236100000000     0.371890000000     0.978910000000    -0.0938208  
C445     C      0.233410000000     0.371250000000     0.942810000000     0.0725603  
C446     C      0.218370000000     0.357160000000     0.037910000000    -0.00733922 
C447     C      0.199950000000     0.358280000000     0.056420000000    -0.0355601  
C448     C      0.201290000000     0.360770000000     0.092500000000    -0.0354942  
C449     C      0.220860000000     0.361760000000     0.110820000000    -0.00747978 
C450     C      0.239180000000     0.360370000000     0.092410000000    -0.0357586  
C451     C      0.238100000000     0.358380000000     0.056140000000    -0.0358435  
C452     C      0.221720000000     0.363860000000     0.149130000000     0.0500378  
C453     C      0.224100000000     0.347090000000     0.169820000000    -0.0939123  
C454     C      0.222280000000     0.347860000000     0.205940000000     0.0725123  
C455     C      0.217490000000     0.382430000000     0.201470000000     0.0727639  
C456     C      0.218760000000     0.381890000000     0.165300000000    -0.0941988  
C457     C      0.952510000000     0.216190000000     0.190660000000     0.07282    
C458     C      0.976120000000     0.227300000000     0.203850000000    -0.0936672  
C459     C      0.988360000000     0.252130000000     0.211570000000     0.0516499  
C460     C      0.976580000000     0.265350000000     0.204910000000    -0.0940206  
C461     C      0.952980000000     0.253670000000     0.191780000000     0.0728793  
C462     C      0.013100000000     0.264150000000     0.227020000000    -0.00921071 
C463     C      0.030530000000     0.258220000000     0.215770000000    -0.0348391  
C464     C      0.053820000000     0.269730000000     0.230190000000    -0.0361164  
C465     C      0.060210000000     0.287450000000     0.256140000000    -0.00661284 
C466     C      0.042720000000     0.293210000000     0.267580000000    -0.0362188  
C467     C      0.019450000000     0.281680000000     0.253240000000    -0.0347453  
C468     C      0.085180000000     0.300250000000     0.270690000000     0.0492169  
C469     C      0.097440000000     0.287670000000     0.278480000000    -0.0932173  
C470     C      0.121180000000     0.300190000000     0.291180000000     0.0722582  
C471     C      0.120860000000     0.337270000000     0.289000000000     0.0722913  
C472     C      0.097120000000     0.325310000000     0.276420000000    -0.0933188  
C473     C      0.285820000000     0.422240000000     0.357270000000     0.0724075  
C474     C      0.309530000000     0.434730000000     0.370070000000    -0.0932966  
C475     C      0.321810000000     0.422140000000     0.377720000000     0.0495268  
C476     C      0.309930000000     0.397120000000     0.371720000000    -0.0932774  
C477     C      0.286200000000     0.385180000000     0.359090000000     0.0723899  
C478     C      0.346720000000     0.434910000000     0.392450000000    -0.00681136 
C479     C      0.352900000000     0.452360000000     0.418750000000    -0.0355022  
C480     C      0.376160000000     0.463940000000     0.433220000000    -0.035424   
C481     C      0.393810000000     0.458400000000     0.421650000000    -0.00675456 
C482     C      0.387640000000     0.441080000000     0.395150000000    -0.0353679  
C483     C      0.364370000000     0.429440000000     0.380780000000    -0.0355758  
C484     C      0.418610000000     0.470730000000     0.436930000000     0.0493726  
C485     C      0.430370000000     0.495460000000     0.445160000000    -0.0929941  
C486     C      0.453980000000     0.506910000000     0.458330000000     0.0723206  
C487     C      0.454540000000     0.469960000000     0.456060000000     0.0725166  
C488     C      0.430920000000     0.457940000000     0.442960000000    -0.0931589  
C489     C      0.568960000000     0.041450000000     0.608430000000     0.072617   
C490     C      0.571380000000     0.042010000000     0.644560000000    -0.0939712  
C491     C      0.552140000000     0.025210000000     0.664980000000     0.0500711  
C492     C      0.531200000000     0.007390000000     0.648510000000    -0.094363   
C493     C      0.529560000000     0.007050000000     0.612330000000     0.072529   
C494     C      0.553300000000     0.027040000000     0.703320000000    -0.00748667 
C495     C      0.572980000000     0.028260000000     0.721700000000    -0.0358086  
C496     C      0.573850000000     0.030020000000     0.757990000000    -0.0358281  
C497     C      0.555340000000     0.031150000000     0.776290000000    -0.00742147 
C498     C      0.535830000000     0.030190000000     0.757820000000    -0.0355554  
C499     C      0.534720000000     0.027940000000     0.721700000000    -0.0355362  
C500     C      0.555910000000     0.032850000000     0.814640000000     0.0499753  
C501     C      0.558460000000     0.016030000000     0.834980000000    -0.0938234  
C502     C      0.556450000000     0.016400000000     0.871100000000     0.0725638  
C503     C      0.551100000000     0.050670000000     0.867370000000     0.072674   
C504     C      0.552560000000     0.050520000000     0.831200000000    -0.0941546  
C505     C      0.523450000000     0.006070000000     0.112060000000     0.0726311  
C506     C      0.522150000000     0.006320000000     0.148250000000    -0.0944458  
C507     C      0.518860000000     0.024030000000     0.164800000000     0.0501539  
C508     C      0.516220000000     0.040790000000     0.144460000000    -0.0940015  
C509     C      0.518080000000     0.040320000000     0.108320000000     0.0726508  
C510     C      0.519600000000     0.025840000000     0.203150000000    -0.00752697 
C511     C      0.539170000000     0.026840000000     0.221470000000    -0.0354224  
C512     C      0.540430000000     0.029170000000     0.257580000000    -0.0356127  
C513     C      0.521920000000     0.030130000000     0.276100000000    -0.00740709 
C514     C      0.502190000000     0.028880000000     0.257860000000    -0.0358151  
C515     C      0.501180000000     0.027040000000     0.221580000000    -0.0357249  
C516     C      0.523200000000     0.031980000000     0.314440000000     0.0500765  
C517     C      0.544190000000     0.049770000000     0.330820000000    -0.0941864  
C518     C      0.545910000000     0.050120000000     0.367010000000     0.0726649  
C519     C      0.506460000000     0.015810000000     0.371050000000     0.0726339  
C520     C      0.503970000000     0.015230000000     0.334920000000    -0.0939594  
C521     C      0.787870000000     0.174230000000     0.124490000000     0.07239    
C522     C      0.764110000000     0.163070000000     0.111850000000    -0.0932374  
C523     C      0.751780000000     0.138210000000     0.104420000000     0.0493675  
C524     C      0.763680000000     0.125030000000     0.110470000000    -0.0933364  
C525     C      0.787440000000     0.136770000000     0.122990000000     0.0723819  
C526     C      0.726820000000     0.126100000000     0.089850000000    -0.00688265 
C527     C      0.720440000000     0.137370000000     0.063720000000    -0.0354292  
C528     C      0.697170000000     0.125610000000     0.049220000000    -0.0356177  
C529     C      0.679750000000     0.102310000000     0.060570000000    -0.00677423 
C530     C      0.686070000000     0.091190000000     0.087000000000    -0.0354736  
C531     C      0.709320000000     0.102920000000     0.101430000000    -0.0356185  
C532     C      0.655060000000     0.089580000000     0.044980000000     0.0492927  
C533     C      0.642750000000     0.102110000000     0.037060000000    -0.0929609  
C534     C      0.619180000000     0.089600000000     0.023710000000     0.0722045  
C535     C      0.619870000000     0.052700000000     0.025040000000     0.0724394  
C536     C      0.643410000000     0.064630000000     0.038350000000    -0.0933086  
C537     C      0.222540000000     0.892900000000     0.704330000000     0.0726513  
C538     C      0.224370000000     0.895270000000     0.668190000000    -0.0939641  
C539     C      0.221760000000     0.875920000000     0.647840000000     0.0500598  
C540     C      0.218540000000     0.854930000000     0.664380000000    -0.0942203  
C541     C      0.217270000000     0.853340000000     0.700570000000     0.0727041  
C542     C      0.221020000000     0.877050000000     0.609500000000    -0.00743127 
C543     C      0.201500000000     0.858510000000     0.591160000000    -0.0355729  
C544     C      0.200280000000     0.859610000000     0.555040000000    -0.0355498  
C545     C      0.218770000000     0.879050000000     0.536530000000    -0.00744693 
C546     C      0.238450000000     0.897510000000     0.554780000000    -0.0357944  
C547     C      0.239430000000     0.896650000000     0.591070000000    -0.0358223  
C548     C      0.217560000000     0.879620000000     0.498170000000     0.050046   
C549     C      0.196530000000     0.876330000000     0.481660000000    -0.0942686  
C550     C      0.194870000000     0.874910000000     0.445480000000     0.0727263  
C551     C      0.234410000000     0.880160000000     0.441680000000     0.0727602  
C552     C      0.236860000000     0.882130000000     0.477800000000    -0.0940463  
C553     C      0.190280000000     0.870110000000     0.945520000000     0.0728071  
C554     C      0.188850000000     0.868440000000     0.981700000000    -0.0942586  
C555     C      0.185510000000     0.847390000000     0.998200000000     0.0498791  
C556     C      0.182980000000     0.828090000000     0.977810000000    -0.0938157  
C557     C      0.184970000000     0.830540000000     0.941690000000     0.0724275  
C558     C      0.186050000000     0.846160000000     0.036550000000    -0.00735401 
C559     C      0.167560000000     0.826500000000     0.054780000000    -0.0358262  
C560     C      0.168370000000     0.825520000000     0.091070000000    -0.0358325  
C561     C      0.187990000000     0.843900000000     0.109520000000    -0.00747539 
C562     C      0.206560000000     0.863400000000     0.091200000000    -0.0354725  
C563     C      0.205500000000     0.864630000000     0.055090000000    -0.0355961  
C564     C      0.189080000000     0.843170000000     0.147870000000     0.0500612  
C565     C      0.169740000000     0.840630000000     0.168180000000    -0.0939229  
C566     C      0.172090000000     0.842470000000     0.204330000000     0.0725827  
C567     C      0.211600000000     0.847630000000     0.200640000000     0.0727948  
C568     C      0.210030000000     0.846340000000     0.164450000000    -0.094262   
C569     C      0.286180000000     0.882430000000     0.855760000000     0.0722565  
C570     C      0.309960000000     0.893540000000     0.868300000000    -0.0932366  
C571     C      0.322390000000     0.918420000000     0.875610000000     0.0494257  
C572     C      0.310570000000     0.931660000000     0.869580000000    -0.093322   
C573     C      0.286780000000     0.919980000000     0.857170000000     0.0723826  
C574     C      0.347410000000     0.930500000000     0.890020000000    -0.00687972 
C575     C      0.353820000000     0.919250000000     0.916150000000    -0.0354525  
C576     C      0.377110000000     0.931000000000     0.930530000000    -0.0355223  
C577     C      0.394540000000     0.954270000000     0.919080000000    -0.00673492 
C578     C      0.388190000000     0.965360000000     0.892640000000    -0.0355293  
C579     C      0.364910000000     0.953630000000     0.878320000000    -0.0355568  
C580     C      0.419250000000     0.967010000000     0.934590000000     0.0491033  
C581     C      0.431570000000     0.954480000000     0.942500000000    -0.0928459  
C582     C      0.455150000000     0.967000000000     0.955790000000     0.0721756  
C583     C      0.454490000000     0.003910000000     0.954390000000     0.0719934  
C584     C      0.430920000000     0.991970000000     0.941140000000    -0.0928439  
C585     C      0.857280000000     0.675890000000     0.779060000000     0.072927   
C586     C      0.856170000000     0.676260000000     0.815250000000    -0.0942981  
C587     C      0.853360000000     0.694260000000     0.831800000000     0.0501238  
C588     C      0.850990000000     0.711190000000     0.811480000000    -0.0939138  
C589     C      0.852650000000     0.710580000000     0.775320000000     0.0726117  
C590     C      0.854280000000     0.696120000000     0.870140000000    -0.00739879 
C591     C      0.873770000000     0.696790000000     0.888270000000    -0.0355775  
C592     C      0.875100000000     0.698970000000     0.924390000000    -0.0353981  
C593     C      0.856770000000     0.700100000000     0.943110000000    -0.00742344 
C594     C      0.837150000000     0.699240000000     0.925060000000    -0.0357143  
C595     C      0.836050000000     0.697550000000     0.888770000000    -0.0358099  
C596     C      0.858070000000     0.701660000000     0.981470000000     0.0500157  
C597     C      0.879200000000     0.719100000000     0.997990000000    -0.0942559  
C598     C      0.880930000000     0.719120000000     0.034160000000     0.0728524  
C599     C      0.841250000000     0.685140000000     0.037910000000     0.072588   
C600     C      0.838750000000     0.684910000000     0.001810000000    -0.0936466  
C601     C      0.903290000000     0.708750000000     0.275370000000     0.0726645  
C602     C      0.905490000000     0.709340000000     0.311540000000    -0.0939196  
C603     C      0.886000000000     0.692770000000     0.331810000000     0.0501335  
C604     C      0.865060000000     0.675100000000     0.315180000000    -0.0942212  
C605     C      0.863630000000     0.674730000000     0.278970000000     0.0728341  
C606     C      0.886940000000     0.694720000000     0.370130000000    -0.00742054 
C607     C      0.906410000000     0.695790000000     0.388910000000    -0.0357664  
C608     C      0.907080000000     0.697690000000     0.425180000000    -0.0357259  
C609     C      0.888590000000     0.699120000000     0.443060000000    -0.00739237 
C610     C      0.869310000000     0.698320000000     0.424200000000    -0.0354634  
C611     C      0.868390000000     0.695940000000     0.388100000000    -0.0355003  
C612     C      0.888950000000     0.700920000000     0.481400000000     0.0501052  
C613     C      0.891270000000     0.684070000000     0.502000000000    -0.0940336  
C614     C      0.889180000000     0.684610000000     0.538080000000     0.0728434  
C615     C      0.884150000000     0.719040000000     0.533820000000     0.0728075  
C616     C      0.885680000000     0.718740000000     0.497660000000    -0.0941235  
C617     C      0.618940000000     0.589320000000     0.526840000000     0.0724172  
C618     C      0.642630000000     0.601390000000     0.539730000000    -0.0932914  
C619     C      0.654790000000     0.588530000000     0.546300000000     0.0493707  
C620     C      0.642810000000     0.563660000000     0.538950000000    -0.093085   
C621     C      0.619130000000     0.552170000000     0.526040000000     0.0722997  
C622     C      0.679690000000     0.600900000000     0.561210000000    -0.00684275 
C623     C      0.686140000000     0.618520000000     0.587330000000    -0.0354298  
C624     C      0.709490000000     0.630120000000     0.601450000000    -0.0355786  
C625     C      0.726950000000     0.624340000000     0.589880000000    -0.00685245 
C626     C      0.720490000000     0.606640000000     0.563890000000    -0.0355371  
C627     C      0.697140000000     0.595070000000     0.549710000000    -0.0354521  
C628     C      0.751940000000     0.637030000000     0.604380000000     0.0494075  
C629     C      0.763970000000     0.662070000000     0.610310000000    -0.0934129  
C630     C      0.787770000000     0.673910000000     0.622700000000     0.0723999  
C631     C      0.787940000000     0.636740000000     0.624360000000     0.0722059  
C632     C      0.764150000000     0.624340000000     0.611850000000    -0.0931484  
C633     C      0.121750000000     0.841270000000     0.789610000000     0.072154   
C634     C      0.098160000000     0.830300000000     0.776350000000    -0.0929355  
C635     C      0.085830000000     0.805500000000     0.768460000000     0.0490272  
C636     C      0.097490000000     0.792160000000     0.775040000000    -0.0931636  
C637     C      0.121070000000     0.803690000000     0.788250000000     0.0721995  
C638     C      0.061120000000     0.793640000000     0.752940000000    -0.00656137 
C639     C      0.043750000000     0.799620000000     0.764260000000    -0.0360784  
C640     C      0.020490000000     0.788280000000     0.749760000000    -0.0348541  
C641     C      0.014060000000     0.770670000000     0.723650000000    -0.00929865 
C642     C      0.031490000000     0.764850000000     0.712120000000    -0.0348827  
C643     C      0.054740000000     0.776210000000     0.726540000000    -0.0360531  
C644     C      0.989110000000     0.758010000000     0.709040000000     0.0517818  
C645     C      0.976900000000     0.770700000000     0.701520000000    -0.0939694  
C646     C      0.953150000000     0.758290000000     0.688860000000     0.072937   
C647     C      0.953330000000     0.721140000000     0.690520000000     0.0729088  
C648     C      0.977090000000     0.732970000000     0.703050000000    -0.0940542  
Cu1      Cu     0.870480000000     0.716830000000     0.654940000000     0.845497   
Cu2      Cu     0.870670000000     0.678190000000     0.658080000000     0.846972   
Cu3      Cu     0.204210000000     0.881310000000     0.824510000000     0.846055   
Cu4      Cu     0.203520000000     0.842240000000     0.821590000000     0.845705   
Cu5      Cu     0.536810000000     0.047490000000     0.988280000000     0.845842   
Cu6      Cu     0.537550000000     0.009130000000     0.991110000000     0.845652   
Cu7      Cu     0.203390000000     0.380530000000     0.322200000000     0.846934   
Cu8      Cu     0.203650000000     0.341950000000     0.326040000000     0.844736   
Cu9      Cu     0.870490000000     0.214710000000     0.158700000000     0.846123   
Cu10     Cu     0.870020000000     0.175740000000     0.155780000000     0.846152   
Cu11     Cu     0.536280000000     0.548770000000     0.493360000000     0.84568    
Cu12     Cu     0.536960000000     0.510390000000     0.490500000000     0.844918   
Cu13     Cu     0.181770000000     0.339110000000     0.826480000000     0.846358   
Cu14     Cu     0.220620000000     0.377560000000     0.822810000000     0.846489   
Cu15     Cu     0.350100000000     0.173930000000     0.654530000000     0.846644   
Cu16     Cu     0.388300000000     0.213080000000     0.657360000000     0.846717   
Cu17     Cu     0.016810000000     0.507620000000     0.988430000000     0.845945   
Cu18     Cu     0.055370000000     0.546400000000     0.991490000000     0.846649   
Cu19     Cu     0.687170000000     0.843600000000     0.323950000000     0.846916   
Cu20     Cu     0.725380000000     0.882710000000     0.326950000000     0.846431   
Cu21     Cu     0.852860000000     0.677660000000     0.157910000000     0.847177   
Cu22     Cu     0.892060000000     0.715800000000     0.155120000000     0.846634   
Cu23     Cu     0.518340000000     0.009380000000     0.491250000000     0.846292   
Cu24     Cu     0.557200000000     0.047860000000     0.488130000000     0.846566   
Cu25     Cu     0.388390000000     0.194000000000     0.157520000000     0.846579   
Cu26     Cu     0.350030000000     0.194740000000     0.154370000000     0.845534   
Cu27     Cu     0.558850000000     0.527690000000     0.989350000000     0.846072   
Cu28     Cu     0.520820000000     0.528930000000     0.993890000000     0.844243   
Cu29     Cu     0.222700000000     0.861510000000     0.321620000000     0.845978   
Cu30     Cu     0.183670000000     0.860910000000     0.324480000000     0.845791   
Cu31     Cu     0.055290000000     0.527530000000     0.491380000000     0.846118   
Cu32     Cu     0.016970000000     0.528360000000     0.488530000000     0.845546   
Cu33     Cu     0.889870000000     0.195220000000     0.655820000000     0.84633    
Cu34     Cu     0.850730000000     0.194400000000     0.658670000000     0.845725   
Cu35     Cu     0.726520000000     0.861890000000     0.826900000000     0.845207   
Cu36     Cu     0.687760000000     0.861850000000     0.824020000000     0.846604   
H1       H      0.778040000000     0.935610000000     0.796960000000     0.0254468  
H2       H      0.798900000000     0.976420000000     0.773570000000     0.05238    
H3       H      0.731150000000     0.976550000000     0.771990000000     0.0522543  
H4       H      0.710760000000     0.935620000000     0.794640000000     0.0252729  
H5       H      0.811440000000     0.018260000000     0.786810000000     0.0374539  
H6       H      0.831480000000     0.058800000000     0.761420000000     0.0376881  
H7       H      0.770110000000     0.037870000000     0.693450000000     0.0374315  
H8       H      0.750150000000     0.997330000000     0.718630000000     0.0375529  
H9       H      0.850050000000     0.080530000000     0.707110000000     0.0525069  
H10      H      0.869350000000     0.121770000000     0.685220000000     0.0254761  
H11      H      0.801340000000     0.120280000000     0.687970000000     0.0252863  
H12      H      0.781650000000     0.079250000000     0.710250000000     0.0524055  
H13      H      0.964300000000     0.454810000000     0.517860000000     0.0259747  
H14      H      0.942570000000     0.413480000000     0.539430000000     0.0523349  
H15      H      0.009780000000     0.412370000000     0.542540000000     0.0499924  
H16      H      0.030910000000     0.453470000000     0.520560000000     0.026227   
H17      H      0.939400000000     0.391390000000     0.593420000000     0.0379661  
H18      H      0.919340000000     0.350770000000     0.618610000000     0.0374879  
H19      H      0.960180000000     0.330540000000     0.550310000000     0.0376041  
H20      H      0.980270000000     0.371120000000     0.525300000000     0.037928   
H21      H      0.890530000000     0.308670000000     0.605290000000     0.0524845  
H22      H      0.871330000000     0.267860000000     0.628700000000     0.0253884  
H23      H      0.939280000000     0.269230000000     0.626590000000     0.0254782  
H24      H      0.959050000000     0.310130000000     0.603910000000     0.0525988  
H25      H      0.041340000000     0.602410000000     0.459220000000     0.0250925  
H26      H      0.062380000000     0.643340000000     0.436640000000     0.0520661  
H27      H      0.129400000000     0.641780000000     0.438180000000     0.0523584  
H28      H      0.107890000000     0.600960000000     0.461490000000     0.0253364  
H29      H      0.081640000000     0.663890000000     0.383190000000     0.0373602  
H30      H      0.102120000000     0.704490000000     0.358240000000     0.0373251  
H31      H      0.163180000000     0.724470000000     0.426460000000     0.0375795  
H32      H      0.142630000000     0.683840000000     0.451590000000     0.0373682  
H33      H      0.113940000000     0.745800000000     0.375470000000     0.0522368  
H34      H      0.133950000000     0.786910000000     0.353520000000     0.025184   
H35      H      0.201700000000     0.787850000000     0.350920000000     0.0253493  
H36      H      0.182070000000     0.746510000000     0.372470000000     0.0524324  
H37      H      0.703490000000     0.788000000000     0.855810000000     0.0252891  
H38      H      0.683040000000     0.746960000000     0.878150000000     0.0523804  
H39      H      0.615220000000     0.746880000000     0.875820000000     0.0524528  
H40      H      0.636250000000     0.788100000000     0.853820000000     0.0253676  
H41      H      0.653520000000     0.705250000000     0.861430000000     0.037443   
H42      H      0.633380000000     0.664590000000     0.886290000000     0.037345   
H43      H      0.593140000000     0.685020000000     0.955510000000     0.037299   
H44      H      0.613150000000     0.725610000000     0.930370000000     0.0376626  
H45      H      0.631260000000     0.642770000000     0.938680000000     0.052177   
H46      H      0.610430000000     0.601600000000     0.960610000000     0.025226   
H47      H      0.543760000000     0.602730000000     0.964370000000     0.0254238  
H48      H      0.563910000000     0.643660000000     0.941690000000     0.0522776  
H49      H      0.272370000000     0.935510000000     0.292330000000     0.025267   
H50      H      0.292240000000     0.976410000000     0.269610000000     0.0522103  
H51      H      0.223820000000     0.975190000000     0.271120000000     0.0522555  
H52      H      0.204550000000     0.934400000000     0.294580000000     0.025331   
H53      H      0.293460000000     0.996910000000     0.216090000000     0.0375514  
H54      H      0.313530000000     0.037450000000     0.190960000000     0.0374224  
H55      H      0.272640000000     0.057780000000     0.258950000000     0.0376179  
H56      H      0.252630000000     0.017210000000     0.284290000000     0.0373512  
H57      H      0.343010000000     0.078780000000     0.208130000000     0.0523967  
H58      H      0.364080000000     0.119880000000     0.186150000000     0.0253084  
H59      H      0.297400000000     0.121040000000     0.183180000000     0.025317   
H60      H      0.275710000000     0.079710000000     0.204770000000     0.0524291  
H61      H      0.440980000000     0.267490000000     0.128230000000     0.0253847  
H62      H      0.462750000000     0.308820000000     0.106690000000     0.0524517  
H63      H      0.395700000000     0.310270000000     0.104570000000     0.0524609  
H64      H      0.374510000000     0.269090000000     0.126380000000     0.0252627  
H65      H      0.465200000000     0.330580000000     0.052200000000     0.0376706  
H66      H      0.485680000000     0.371270000000     0.027330000000     0.0373277  
H67      H      0.446590000000     0.392420000000     0.097650000000     0.0374929  
H68      H      0.425940000000     0.351680000000     0.122160000000     0.0374652  
H69      H      0.515350000000     0.412570000000     0.040480000000     0.0522233  
H70      H      0.535600000000     0.453510000000     0.017710000000     0.0252782  
H71      H      0.469380000000     0.455400000000     0.023750000000     0.0253392  
H72      H      0.448470000000     0.414280000000     0.045680000000     0.0522398  
H73      H      0.670970000000     0.850570000000     0.714910000000     0.0252853  
H74      H      0.671620000000     0.848320000000     0.652000000000     0.0532169  
H75      H      0.734460000000     0.839590000000     0.658440000000     0.0531896  
H76      H      0.733720000000     0.842390000000     0.721420000000     0.0252064  
H77      H      0.704710000000     0.878660000000     0.607590000000     0.0385621  
H78      H      0.708170000000     0.880800000000     0.544230000000     0.0385148  
H79      H      0.709030000000     0.813380000000     0.543090000000     0.0379589  
H80      H      0.705980000000     0.811450000000     0.606820000000     0.0378884  
H81      H      0.680010000000     0.812720000000     0.492100000000     0.0531092  
H82      H      0.680510000000     0.816730000000     0.429210000000     0.0252069  
H83      H      0.741910000000     0.888310000000     0.436310000000     0.0253686  
H84      H      0.741480000000     0.884930000000     0.499180000000     0.0533451  
H85      H      0.670910000000     0.837800000000     0.214520000000     0.025235   
H86      H      0.671870000000     0.840800000000     0.151580000000     0.0531624  
H87      H      0.733330000000     0.913020000000     0.158560000000     0.0532078  
H88      H      0.732290000000     0.909390000000     0.221530000000     0.0252063  
H89      H      0.704880000000     0.912090000000     0.106650000000     0.03788    
H90      H      0.708340000000     0.913530000000     0.042980000000     0.0379848  
H91      H      0.709390000000     0.846210000000     0.044190000000     0.0385402  
H92      H      0.705530000000     0.844560000000     0.107510000000     0.0384854  
H93      H      0.680020000000     0.885210000000     0.991880000000     0.0531825  
H94      H      0.680750000000     0.881940000000     0.929020000000     0.025186   
H95      H      0.743030000000     0.873020000000     0.936350000000     0.0252843  
H96      H      0.742390000000     0.875760000000     0.999240000000     0.0533704  
H97      H      0.871620000000     0.768870000000     0.184420000000     0.0254372  
H98      H      0.852260000000     0.790810000000     0.206270000000     0.0525537  
H99      H      0.783860000000     0.723880000000     0.209070000000     0.0524773  
H100     H      0.803590000000     0.702560000000     0.186830000000     0.0253719  
H101     H      0.833500000000     0.793760000000     0.260610000000     0.0377221  
H102     H      0.813090000000     0.813820000000     0.286440000000     0.037485   
H103     H      0.752050000000     0.773820000000     0.217810000000     0.0375292  
H104     H      0.772390000000     0.753750000000     0.192150000000     0.0375307  
H105     H      0.799840000000     0.842900000000     0.273630000000     0.0524701  
H106     H      0.778260000000     0.862060000000     0.297420000000     0.0254135  
H107     H      0.711840000000     0.794150000000     0.295030000000     0.0252755  
H108     H      0.732940000000     0.774430000000     0.271950000000     0.0524185  
H109     H      0.634200000000     0.864260000000     0.352610000000     0.0253421  
H110     H      0.612210000000     0.883700000000     0.373890000000     0.0524899  
H111     H      0.679200000000     0.952030000000     0.377140000000     0.052458   
H112     H      0.700580000000     0.932200000000     0.355460000000     0.025267   
H113     H      0.609010000000     0.902560000000     0.428000000000     0.0376632  
H114     H      0.588630000000     0.922900000000     0.452940000000     0.0374029  
H115     H      0.628960000000     0.983790000000     0.384190000000     0.0374425  
H116     H      0.649390000000     0.963520000000     0.359450000000     0.0374398  
H117     H      0.559480000000     0.935750000000     0.439220000000     0.0523601  
H118     H      0.539840000000     0.957070000000     0.462200000000     0.0254032  
H119     H      0.607360000000     0.023910000000     0.459830000000     0.0253229  
H120     H      0.627570000000     0.003060000000     0.437590000000     0.0520677  
H121     H      0.072080000000     0.538500000000     0.600580000000     0.0252505  
H122     H      0.071450000000     0.540860000000     0.663490000000     0.0532925  
H123     H      0.009630000000     0.551260000000     0.656810000000     0.0529324  
H124     H      0.010340000000     0.548370000000     0.593870000000     0.0249394  
H125     H      0.038130000000     0.511090000000     0.707950000000     0.0384294  
H126     H      0.034470000000     0.509030000000     0.771280000000     0.0384656  
H127     H      0.034960000000     0.577130000000     0.772060000000     0.0377247  
H128     H      0.038220000000     0.578990000000     0.708370000000     0.0378047  
H129     H      0.063460000000     0.577280000000     0.823300000000     0.0530808  
H130     H      0.062670000000     0.573310000000     0.886190000000     0.0250975  
H131     H      0.000620000000     0.502160000000     0.878940000000     0.0250883  
H132     H      0.001310000000     0.505510000000     0.816060000000     0.0530744  
H133     H      0.071580000000     0.551940000000     0.100900000000     0.0253056  
H134     H      0.070750000000     0.548820000000     0.163800000000     0.0533303  
H135     H      0.008460000000     0.477130000000     0.156850000000     0.0529367  
H136     H      0.009380000000     0.480870000000     0.093900000000     0.0249287  
H137     H      0.036870000000     0.477440000000     0.208460000000     0.0377811  
H138     H      0.033620000000     0.475960000000     0.272160000000     0.0377563  
H139     H      0.033830000000     0.543910000000     0.271520000000     0.0383808  
H140     H      0.037480000000     0.545600000000     0.208180000000     0.0384219  
H141     H      0.062340000000     0.503980000000     0.323310000000     0.0531326  
H142     H      0.061780000000     0.507250000000     0.386210000000     0.0251187  
H143     H      0.000160000000     0.517280000000     0.379270000000     0.0250263  
H144     H      0.000630000000     0.514550000000     0.316390000000     0.0530247  
H145     H      0.031670000000     0.596790000000     0.019720000000     0.0253426  
H146     H      0.010880000000     0.617160000000     0.041620000000     0.0523752  
H147     H      0.943260000000     0.549460000000     0.038350000000     0.0528268  
H148     H      0.964650000000     0.529450000000     0.016840000000     0.0257477  
H149     H      0.981570000000     0.629380000000     0.024390000000     0.037798   
H150     H      0.961810000000     0.650170000000     0.049610000000     0.0376748  
H151     H      0.920820000000     0.589250000000     0.118050000000     0.0375198  
H152     H      0.940540000000     0.568400000000     0.092640000000     0.0377568  
H153     H      0.960900000000     0.669470000000     0.103280000000     0.0525061  
H154     H      0.941310000000     0.690810000000     0.126000000000     0.0253697  
H155     H      0.873180000000     0.624630000000     0.128180000000     0.0254074  
H156     H      0.892180000000     0.602830000000     0.104730000000     0.0524509  
H157     H      0.343560000000     0.147290000000     0.759920000000     0.0251569  
H158     H      0.342820000000     0.143690000000     0.822880000000     0.0531716  
H159     H      0.404480000000     0.215800000000     0.829480000000     0.0531839  
H160     H      0.405120000000     0.218800000000     0.766560000000     0.0252279  
H161     H      0.371220000000     0.144440000000     0.874520000000     0.0378219  
H162     H      0.367920000000     0.143030000000     0.938210000000     0.0379074  
H163     H      0.367580000000     0.210710000000     0.937210000000     0.0385017  
H164     H      0.371270000000     0.212320000000     0.873890000000     0.0384611  
H165     H      0.396290000000     0.171030000000     0.989450000000     0.0529929  
H166     H      0.395500000000     0.174190000000     0.052330000000     0.0251937  
H167     H      0.333780000000     0.184040000000     0.044900000000     0.0253352  
H168     H      0.334480000000     0.181390000000     0.982020000000     0.0533072  
H169     H      0.333290000000     0.168300000000     0.545250000000     0.0251949  
H170     H      0.333800000000     0.171510000000     0.482360000000     0.0531705  
H171     H      0.395340000000     0.243690000000     0.489230000000     0.0532197  
H172     H      0.394730000000     0.239870000000     0.552130000000     0.0252584  
H173     H      0.366930000000     0.175270000000     0.437580000000     0.0384857  
H174     H      0.370630000000     0.177230000000     0.374260000000     0.0385251  
H175     H      0.370140000000     0.244840000000     0.374240000000     0.0378971  
H176     H      0.366820000000     0.243080000000     0.437930000000     0.0379152  
H177     H      0.341870000000     0.217080000000     0.322650000000     0.0531247  
H178     H      0.342800000000     0.214260000000     0.259720000000     0.0251264  
H179     H      0.404670000000     0.204640000000     0.266920000000     0.0253067  
H180     H      0.403830000000     0.206940000000     0.329820000000     0.0533884  
H181     H      0.535690000000     0.100240000000     0.516550000000     0.0253746  
H182     H      0.515840000000     0.121820000000     0.537960000000     0.0524888  
H183     H      0.447980000000     0.054350000000     0.541410000000     0.0523545  
H184     H      0.468200000000     0.033390000000     0.519610000000     0.025269   
H185     H      0.496970000000     0.124730000000     0.592210000000     0.0376256  
H186     H      0.476260000000     0.144650000000     0.617460000000     0.0373644  
H187     H      0.415310000000     0.103750000000     0.549040000000     0.0374665  
H188     H      0.435950000000     0.083790000000     0.523990000000     0.0374536  
H189     H      0.462840000000     0.173400000000     0.604020000000     0.0524118  
H190     H      0.441160000000     0.192540000000     0.627420000000     0.0253646  
H191     H      0.374850000000     0.124530000000     0.625340000000     0.0251694  
H192     H      0.396060000000     0.104810000000     0.602670000000     0.0522869  
H193     H      0.107510000000     0.524580000000     0.962990000000     0.0253382  
H194     H      0.128930000000     0.504570000000     0.941680000000     0.0525152  
H195     H      0.061370000000     0.436790000000     0.938840000000     0.0523344  
H196     H      0.040550000000     0.457190000000     0.960510000000     0.0251314  
H197     H      0.131510000000     0.485410000000     0.887410000000     0.0376752  
H198     H      0.151390000000     0.464610000000     0.862360000000     0.0373914  
H199     H      0.110850000000     0.404060000000     0.931570000000     0.0373906  
H200     H      0.090890000000     0.424780000000     0.956380000000     0.0373917  
H201     H      0.180280000000     0.451560000000     0.875860000000     0.0523475  
H202     H      0.199590000000     0.430000000000     0.852680000000     0.0254032  
H203     H      0.131950000000     0.363340000000     0.856080000000     0.0251224  
H204     H      0.112030000000     0.384430000000     0.878510000000     0.052203   
H205     H      0.297240000000     0.194430000000     0.684580000000     0.0253181  
H206     H      0.275580000000     0.213530000000     0.708180000000     0.0523628  
H207     H      0.342330000000     0.282160000000     0.709390000000     0.052396   
H208     H      0.363530000000     0.262470000000     0.686540000000     0.0252646  
H209     H      0.262060000000     0.242240000000     0.695100000000     0.0374137  
H210     H      0.241400000000     0.262110000000     0.720660000000     0.0376403  
H211     H      0.302640000000     0.303080000000     0.788500000000     0.0375003  
H212     H      0.323230000000     0.283160000000     0.763160000000     0.0374967  
H213     H      0.222730000000     0.265050000000     0.775220000000     0.0524453  
H214     H      0.203010000000     0.286650000000     0.797020000000     0.0252018  
H215     H      0.270470000000     0.353500000000     0.793300000000     0.0253766  
H216     H      0.290560000000     0.332510000000     0.771130000000     0.0525763  
H217     H      0.492080000000     0.509470000000     0.889100000000     0.0252076  
H218     H      0.487430000000     0.506620000000     0.826200000000     0.053182   
H219     H      0.558600000000     0.514780000000     0.816860000000     0.0532344  
H220     H      0.562600000000     0.517050000000     0.879650000000     0.0253496  
H221     H      0.554990000000     0.545420000000     0.773190000000     0.0385743  
H222     H      0.552780000000     0.547270000000     0.709890000000     0.0385257  
H223     H      0.485040000000     0.479530000000     0.710260000000     0.0380042  
H224     H      0.487020000000     0.477920000000     0.773970000000     0.0380115  
H225     H      0.522620000000     0.550770000000     0.665530000000     0.0532474  
H226     H      0.525170000000     0.554040000000     0.602660000000     0.0253289  
H227     H      0.516380000000     0.482920000000     0.595600000000     0.0252522  
H228     H      0.513260000000     0.479010000000     0.658540000000     0.0532283  
H229     H      0.582370000000     0.536790000000     0.095980000000     0.0254018  
H230     H      0.586470000000     0.539720000000     0.158890000000     0.053773   
H231     H      0.527220000000     0.554100000000     0.164510000000     0.0539239  
H232     H      0.522940000000     0.550370000000     0.101550000000     0.0251856  
H233     H      0.544420000000     0.508270000000     0.207790000000     0.0393065  
H234     H      0.543820000000     0.506880000000     0.271040000000     0.0372279  
H235     H      0.573080000000     0.584620000000     0.274050000000     0.0368615  
H236     H      0.571960000000     0.585330000000     0.210560000000     0.0386412  
H237     H      0.565520000000     0.515360000000     0.321870000000     0.0519197  
H238     H      0.560180000000     0.511550000000     0.384150000000     0.0250506  
H239     H      0.545800000000     0.570470000000     0.385690000000     0.0253076  
H240     H      0.549410000000     0.573800000000     0.323260000000     0.0518407  
H241     H      0.916610000000     0.215290000000     0.761140000000     0.025324   
H242     H      0.920380000000     0.218430000000     0.824070000000     0.0533256  
H243     H      0.848230000000     0.208090000000     0.830760000000     0.0532968  
H244     H      0.845070000000     0.205480000000     0.767870000000     0.0253207  
H245     H      0.919670000000     0.246380000000     0.875340000000     0.0380798  
H246     H      0.921290000000     0.244810000000     0.939060000000     0.038059   
H247     H      0.853800000000     0.176820000000     0.938910000000     0.0385829  
H248     H      0.851980000000     0.178580000000     0.875560000000     0.0385653  
H249     H      0.883530000000     0.173360000000     0.983630000000     0.0533277  
H250     H      0.881020000000     0.170200000000     0.046530000000     0.0253988  
H251     H      0.890200000000     0.241490000000     0.053330000000     0.0252749  
H252     H      0.893230000000     0.245270000000     0.990400000000     0.0531365  
H253     H      0.850200000000     0.148880000000     0.261040000000     0.025206   
H254     H      0.847210000000     0.145030000000     0.323950000000     0.0532236  
H255     H      0.857180000000     0.217030000000     0.330990000000     0.0532734  
H256     H      0.859640000000     0.220260000000     0.268090000000     0.0253261  
H257     H      0.886790000000     0.213430000000     0.375670000000     0.0385737  
H258     H      0.888650000000     0.211480000000     0.439000000000     0.0385819  
H259     H      0.820940000000     0.143690000000     0.439010000000     0.0379158  
H260     H      0.819290000000     0.145450000000     0.375320000000     0.0378715  
H261     H      0.892420000000     0.181920000000     0.483610000000     0.0534093  
H262     H      0.895560000000     0.184330000000     0.546520000000     0.0253832  
H263     H      0.823960000000     0.174340000000     0.553400000000     0.025242   
H264     H      0.820210000000     0.171400000000     0.490470000000     0.0531771  
H265     H      0.224480000000     0.394290000000     0.713500000000     0.025355   
H266     H      0.220440000000     0.393940000000     0.651070000000     0.0523354  
H267     H      0.149000000000     0.331040000000     0.659360000000     0.0519809  
H268     H      0.154120000000     0.331290000000     0.721710000000     0.0251119  
H269     H      0.201310000000     0.400060000000     0.603170000000     0.0370798  
H270     H      0.201310000000     0.398030000000     0.540190000000     0.0372217  
H271     H      0.161430000000     0.319720000000     0.545400000000     0.0370217  
H272     H      0.163070000000     0.321760000000     0.608410000000     0.0371744  
H273     H      0.178310000000     0.388790000000     0.488930000000     0.0520835  
H274     H      0.183460000000     0.388540000000     0.426680000000     0.0251057  
H275     H      0.190880000000     0.325470000000     0.435480000000     0.0253241  
H276     H      0.186900000000     0.325820000000     0.497860000000     0.0523264  
H277     H      0.177220000000     0.323000000000     0.935820000000     0.0252051  
H278     H      0.180880000000     0.323930000000     0.998660000000     0.0531431  
H279     H      0.252660000000     0.385960000000     0.990620000000     0.0531761  
H280     H      0.248380000000     0.384950000000     0.927730000000     0.0252059  
H281     H      0.184660000000     0.357570000000     0.042890000000     0.0385225  
H282     H      0.186840000000     0.361610000000     0.106170000000     0.0385244  
H283     H      0.254450000000     0.361130000000     0.106040000000     0.0379217  
H284     H      0.252490000000     0.357520000000     0.042360000000     0.0379663  
H285     H      0.226410000000     0.332890000000     0.158110000000     0.0531026  
H286     H      0.223530000000     0.334120000000     0.221030000000     0.0251058  
H287     H      0.214770000000     0.396460000000     0.212890000000     0.0253653  
H288     H      0.217110000000     0.395320000000     0.150040000000     0.053361   
H289     H      0.943580000000     0.196870000000     0.185630000000     0.0254199  
H290     H      0.984450000000     0.216320000000     0.208790000000     0.0530152  
H291     H      0.985520000000     0.284670000000     0.209770000000     0.0529867  
H292     H      0.944530000000     0.264620000000     0.187400000000     0.0253275  
H293     H      0.026350000000     0.245030000000     0.195330000000     0.036682   
H294     H      0.066980000000     0.265120000000     0.220470000000     0.0376319  
H295     H      0.046950000000     0.306500000000     0.287910000000     0.0373792  
H296     H      0.006330000000     0.286340000000     0.263020000000     0.0366159  
H297     H      0.088750000000     0.268220000000     0.274900000000     0.0522672  
H298     H      0.130040000000     0.289750000000     0.296630000000     0.025268   
H299     H      0.129480000000     0.356730000000     0.292580000000     0.0252624  
H300     H      0.088400000000     0.335800000000     0.270470000000     0.0522146  
H301     H      0.276940000000     0.432680000000     0.351950000000     0.02533    
H302     H      0.318180000000     0.454150000000     0.373860000000     0.0525199  
H303     H      0.318680000000     0.386640000000     0.377540000000     0.0525018  
H304     H      0.277610000000     0.365750000000     0.355320000000     0.0254174  
H305     H      0.339600000000     0.456710000000     0.428660000000     0.0377584  
H306     H      0.380170000000     0.476930000000     0.453900000000     0.0374165  
H307     H      0.400900000000     0.436710000000     0.385130000000     0.0375701  
H308     H      0.360270000000     0.416340000000     0.360220000000     0.037578   
H309     H      0.421660000000     0.506140000000     0.440670000000     0.0522567  
H310     H      0.462480000000     0.526150000000     0.463810000000     0.0253573  
H311     H      0.463410000000     0.459360000000     0.459980000000     0.0253454  
H312     H      0.422380000000     0.438700000000     0.437650000000     0.0523657  
H313     H      0.584030000000     0.055190000000     0.593560000000     0.0251455  
H314     H      0.587850000000     0.056060000000     0.656500000000     0.0531218  
H315     H      0.516060000000     0.993940000000     0.663560000000     0.0535044  
H316     H      0.512860000000     0.993160000000     0.600660000000     0.0255151  
H317     H      0.587490000000     0.027570000000     0.708020000000     0.0379073  
H318     H      0.589070000000     0.030760000000     0.771730000000     0.0379289  
H319     H      0.521250000000     0.030830000000     0.771400000000     0.0384909  
H320     H      0.519470000000     0.027230000000     0.708060000000     0.0385074  
H321     H      0.561060000000     0.002090000000     0.822980000000     0.0531468  
H322     H      0.557860000000     0.002640000000     0.885890000000     0.025207   
H323     H      0.548090000000     0.064430000000     0.879100000000     0.0252241  
H324     H      0.550760000000     0.063970000000     0.816210000000     0.0531664  
H325     H      0.526430000000     0.992280000000     0.100330000000     0.0254161  
H326     H      0.524010000000     0.992910000000     0.163240000000     0.053441   
H327     H      0.513660000000     0.054750000000     0.156450000000     0.0532233  
H328     H      0.516610000000     0.054040000000     0.093520000000     0.0251896  
H329     H      0.553700000000     0.026160000000     0.207780000000     0.0384134  
H330     H      0.555720000000     0.029900000000     0.271110000000     0.0384756  
H331     H      0.487730000000     0.029610000000     0.271640000000     0.0379253  
H332     H      0.485900000000     0.026270000000     0.207950000000     0.0378556  
H333     H      0.559330000000     0.063170000000     0.315720000000     0.0532657  
H334     H      0.562650000000     0.063980000000     0.378620000000     0.0252731  
H335     H      0.491400000000     0.002100000000     0.385970000000     0.0251802  
H336     H      0.487460000000     0.001200000000     0.323060000000     0.0531701  
H337     H      0.796780000000     0.193540000000     0.129650000000     0.0253771  
H338     H      0.755460000000     0.173870000000     0.108030000000     0.0524877  
H339     H      0.754910000000     0.105820000000     0.104790000000     0.0523548  
H340     H      0.796010000000     0.125880000000     0.126810000000     0.0253061  
H341     H      0.733600000000     0.155080000000     0.053880000000     0.0376568  
H342     H      0.693010000000     0.134570000000     0.028640000000     0.0374951  
H343     H      0.672960000000     0.073460000000     0.096850000000     0.037387   
H344     H      0.713530000000     0.093900000000     0.121900000000     0.0373897  
H345     H      0.650980000000     0.121380000000     0.041960000000     0.0523269  
H346     H      0.610190000000     0.099950000000     0.018520000000     0.0254083  
H347     H      0.611520000000     0.033330000000     0.020680000000     0.0252771  
H348     H      0.652420000000     0.054290000000     0.043380000000     0.0522277  
H349     H      0.223990000000     0.908060000000     0.719150000000     0.0251741  
H350     H      0.226870000000     0.911780000000     0.656210000000     0.0531687  
H351     H      0.216710000000     0.839700000000     0.649390000000     0.0532202  
H352     H      0.214360000000     0.836590000000     0.712290000000     0.0252553  
H353     H      0.187000000000     0.843320000000     0.604840000000     0.0384681  
H354     H      0.185030000000     0.845070000000     0.541500000000     0.0384679  
H355     H      0.252900000000     0.912680000000     0.541000000000     0.0378854  
H356     H      0.254660000000     0.911130000000     0.604700000000     0.0379248  
H357     H      0.181340000000     0.874560000000     0.496680000000     0.0532498  
H358     H      0.178090000000     0.871940000000     0.433780000000     0.0252224  
H359     H      0.249540000000     0.881540000000     0.426860000000     0.0251449  
H360     H      0.253400000000     0.884690000000     0.489760000000     0.053162   
H361     H      0.193260000000     0.886900000000     0.933830000000     0.025243   
H362     H      0.190630000000     0.883640000000     0.996710000000     0.053249   
H363     H      0.180400000000     0.811530000000     0.989760000000     0.0529963  
H364     H      0.183560000000     0.815410000000     0.926860000000     0.0251484  
H365     H      0.152370000000     0.812080000000     0.040980000000     0.0378079  
H366     H      0.153870000000     0.810300000000     0.104690000000     0.0378259  
H367     H      0.221760000000     0.877890000000     0.104900000000     0.0384858  
H368     H      0.220070000000     0.879860000000     0.041560000000     0.0385618  
H369     H      0.153250000000     0.838160000000     0.156160000000     0.0530623  
H370     H      0.156940000000     0.841080000000     0.219110000000     0.0251085  
H371     H      0.228330000000     0.850500000000     0.212400000000     0.0252685  
H372     H      0.225250000000     0.848110000000     0.149490000000     0.0532417  
H373     H      0.277180000000     0.863120000000     0.850680000000     0.0253622  
H374     H      0.318550000000     0.882690000000     0.872120000000     0.0524962  
H375     H      0.319400000000     0.950890000000     0.875190000000     0.0523301  
H376     H      0.278270000000     0.930930000000     0.853350000000     0.0253244  
H377     H      0.340650000000     0.901570000000     0.926080000000     0.0376147  
H378     H      0.381310000000     0.922060000000     0.951130000000     0.0374093  
H379     H      0.401300000000     0.983050000000     0.882700000000     0.0375129  
H380     H      0.360680000000     0.962630000000     0.857840000000     0.0374625  
H381     H      0.423320000000     0.935200000000     0.937660000000     0.0523104  
H382     H      0.464140000000     0.956650000000     0.960980000000     0.0254375  
H383     H      0.462850000000     0.023280000000     0.958700000000     0.0253273  
H384     H      0.421910000000     0.002300000000     0.936110000000     0.0520139  
H385     H      0.859880000000     0.661860000000     0.767330000000     0.0253935  
H386     H      0.857800000000     0.662710000000     0.830230000000     0.0534293  
H387     H      0.848790000000     0.725380000000     0.823480000000     0.0531417  
H388     H      0.851400000000     0.724430000000     0.760500000000     0.0251564  
H389     H      0.888130000000     0.695920000000     0.874420000000     0.0386994  
H390     H      0.890310000000     0.699400000000     0.937770000000     0.0385606  
H391     H      0.822820000000     0.700120000000     0.939000000000     0.0379028  
H392     H      0.820850000000     0.697040000000     0.875280000000     0.0379096  
H393     H      0.894420000000     0.732490000000     0.983010000000     0.0533573  
H394     H      0.897770000000     0.732720000000     0.045870000000     0.0253636  
H395     H      0.826100000000     0.671440000000     0.052700000000     0.0252818  
H396     H      0.822130000000     0.671130000000     0.989830000000     0.0530809  
H397     H      0.918540000000     0.722340000000     0.260610000000     0.0252894  
H398     H      0.921980000000     0.723260000000     0.323590000000     0.053306   
H399     H      0.849730000000     0.661820000000     0.330110000000     0.0533241  
H400     H      0.846900000000     0.660990000000     0.267170000000     0.0253166  
H401     H      0.920900000000     0.694860000000     0.375560000000     0.0380523  
H402     H      0.922140000000     0.698300000000     0.439220000000     0.0380739  
H403     H      0.854740000000     0.699190000000     0.437460000000     0.0385547  
H404     H      0.853300000000     0.695350000000     0.374150000000     0.0386128  
H405     H      0.893790000000     0.670020000000     0.490240000000     0.0532847  
H406     H      0.890450000000     0.670840000000     0.553070000000     0.0252424  
H407     H      0.881240000000     0.732930000000     0.545340000000     0.0253699  
H408     H      0.884050000000     0.732210000000     0.482470000000     0.0533618  
H409     H      0.610180000000     0.599980000000     0.522440000000     0.02524    
H410     H      0.651340000000     0.620720000000     0.544400000000     0.0523074  
H411     H      0.651410000000     0.552930000000     0.543900000000     0.0523147  
H412     H      0.610460000000     0.532830000000     0.521210000000     0.0254634  
H413     H      0.673030000000     0.623140000000     0.597260000000     0.0373785  
H414     H      0.713790000000     0.643430000000     0.621780000000     0.0373938  
H415     H      0.733620000000     0.602040000000     0.554010000000     0.0376936  
H416     H      0.692900000000     0.581840000000     0.529300000000     0.0374124  
H417     H      0.755300000000     0.672630000000     0.604610000000     0.0524162  
H418     H      0.796470000000     0.693360000000     0.626410000000     0.0253197  
H419     H      0.796760000000     0.626230000000     0.629540000000     0.0254152  
H420     H      0.755390000000     0.604900000000     0.608150000000     0.0524439  
H421     H      0.130740000000     0.860580000000     0.794770000000     0.0253364  
H422     H      0.089920000000     0.841370000000     0.771490000000     0.0521478  
H423     H      0.088480000000     0.772840000000     0.770030000000     0.0520109  
H424     H      0.129430000000     0.792650000000     0.792560000000     0.0252165  
H425     H      0.047950000000     0.812740000000     0.784830000000     0.0372759  
H426     H      0.007370000000     0.792920000000     0.759570000000     0.0368465  
H427     H      0.027240000000     0.751640000000     0.691660000000     0.0367387  
H428     H      0.067820000000     0.771520000000     0.716700000000     0.0374325  
H429     H      0.985650000000     0.790130000000     0.705280000000     0.0532147  
H430     H      0.944330000000     0.768810000000     0.683650000000     0.0254016  
H431     H      0.944660000000     0.701690000000     0.686760000000     0.0253618  
H432     H      0.985760000000     0.722410000000     0.708790000000     0.0531036  
N1       N      0.742800000000     0.932430000000     0.797140000000    -0.193631   
N2       N      0.836860000000     0.124200000000     0.685220000000    -0.19361    
N3       N      0.999250000000     0.457310000000     0.517840000000    -0.191317   
N4       N      0.903770000000     0.265360000000     0.628970000000    -0.193579   
N5       N      0.072970000000     0.598490000000     0.461680000000    -0.19365    
N6       N      0.169360000000     0.790550000000     0.350850000000    -0.193654   
N7       N      0.671470000000     0.791230000000     0.853460000000    -0.193518   
N8       N      0.575500000000     0.598980000000     0.963830000000    -0.193603   
N9       N      0.236920000000     0.931770000000     0.294790000000    -0.193575   
N10      N      0.332380000000     0.123640000000     0.183320000000    -0.193646   
N11      N      0.406090000000     0.265110000000     0.128640000000    -0.193568   
N12      N      0.504100000000     0.457640000000     0.019410000000    -0.19361    
N13      N      0.702570000000     0.847120000000     0.722810000000    -0.193825   
N14      N      0.710980000000     0.852950000000     0.428120000000    -0.193866   
N15      N      0.701810000000     0.873180000000     0.222680000000    -0.193903   
N16      N      0.711680000000     0.876820000000     0.928050000000    -0.193933   
N17      N      0.839120000000     0.734060000000     0.184260000000    -0.193836   
N18      N      0.743390000000     0.829640000000     0.297530000000    -0.193887   
N19      N      0.669050000000     0.896710000000     0.352700000000    -0.193913   
N20      N      0.572040000000     0.992120000000     0.462290000000    -0.193533   
N21      N      0.040980000000     0.542790000000     0.592580000000    -0.194007   
N22      N      0.031850000000     0.537290000000     0.887210000000    -0.193986   
N23      N      0.040270000000     0.516830000000     0.092750000000    -0.193993   
N24      N      0.031210000000     0.512930000000     0.387370000000    -0.193958   
N25      N      0.999780000000     0.561550000000     0.016960000000    -0.19233    
N26      N      0.905730000000     0.659390000000     0.128410000000    -0.193783   
N27      N      0.374110000000     0.183460000000     0.758600000000    -0.193909   
N28      N      0.364850000000     0.179760000000     0.053260000000    -0.193798   
N29      N      0.364240000000     0.203650000000     0.553330000000    -0.193932   
N30      N      0.373530000000     0.208820000000     0.258680000000    -0.193886   
N31      N      0.503500000000     0.065190000000     0.516760000000    -0.193771   
N32      N      0.406340000000     0.160060000000     0.627700000000    -0.193846   
N33      N      0.072410000000     0.492450000000     0.963060000000    -0.193695   
N34      N      0.167300000000     0.395020000000     0.853040000000    -0.193775   
N35      N      0.332050000000     0.226930000000     0.684240000000    -0.193814   
N36      N      0.235200000000     0.321700000000     0.796530000000    -0.193765   
N37      N      0.527830000000     0.513880000000     0.889030000000    -0.193709   
N38      N      0.521440000000     0.518920000000     0.594480000000    -0.193602   
N39      N      0.552110000000     0.542990000000     0.094130000000    -0.193608   
N40      N      0.552270000000     0.540490000000     0.389520000000    -0.193691   
N41      N      0.880410000000     0.209730000000     0.759870000000    -0.193871   
N42      N      0.884970000000     0.205420000000     0.054570000000    -0.193775   
N43      N      0.855560000000     0.185000000000     0.259920000000    -0.193875   
N44      N      0.860190000000     0.179980000000     0.554600000000    -0.193766   
N45      N      0.189800000000     0.362590000000     0.722230000000    -0.193756   
N46      N      0.187880000000     0.357200000000     0.426460000000    -0.193895   
N47      N      0.212330000000     0.354180000000     0.927140000000    -0.19379    
N48      N      0.218490000000     0.365100000000     0.221600000000    -0.193784   
N49      N      0.940870000000     0.229190000000     0.185200000000    -0.193721   
N50      N      0.132930000000     0.324860000000     0.295980000000    -0.193664   
N51      N      0.274100000000     0.397590000000     0.352270000000    -0.193521   
N52      N      0.466130000000     0.494340000000     0.463260000000    -0.19359    
N53      N      0.548020000000     0.024380000000     0.592460000000    -0.19381    
N54      N      0.552310000000     0.033300000000     0.887140000000    -0.193857   
N55      N      0.522170000000     0.023390000000     0.092280000000    -0.193913   
N56      N      0.527460000000     0.032840000000     0.386940000000    -0.193884   
N57      N      0.799570000000     0.161250000000     0.129590000000    -0.193612   
N58      N      0.607670000000     0.065000000000     0.018250000000    -0.193558   
N59      N      0.218530000000     0.871900000000     0.720370000000    -0.193877   
N60      N      0.213390000000     0.876090000000     0.425680000000    -0.193925   
N61      N      0.189060000000     0.851590000000     0.925700000000    -0.193904   
N62      N      0.193060000000     0.846430000000     0.220400000000    -0.193862   
N63      N      0.274550000000     0.895490000000     0.850660000000    -0.193558   
N64      N      0.466680000000     0.991610000000     0.961180000000    -0.193353   
N65      N      0.856270000000     0.693350000000     0.759270000000    -0.193917   
N66      N      0.862370000000     0.701830000000     0.053920000000    -0.193854   
N67      N      0.882310000000     0.691890000000     0.259240000000    -0.1939     
N68      N      0.885200000000     0.701690000000     0.553840000000    -0.19387    
N69      N      0.607140000000     0.564830000000     0.520460000000    -0.193614   
N70      N      0.799800000000     0.661410000000     0.629300000000    -0.193617   
N71      N      0.133280000000     0.828150000000     0.795000000000    -0.193552   
N72      N      0.941310000000     0.733640000000     0.683860000000    -0.193813   
O1       O      0.906260000000     0.733220000000     0.667570000000    -0.397197   
O2       O      0.834790000000     0.696750000000     0.642720000000    -0.398439   
O3       O      0.862060000000     0.712270000000     0.706310000000    -0.397855   
O4       O      0.878730000000     0.717520000000     0.603790000000    -0.397746   
O5       O      0.879150000000     0.682750000000     0.606790000000    -0.398495   
O6       O      0.862400000000     0.677460000000     0.709160000000    -0.398509   
O7       O      0.834880000000     0.661820000000     0.645400000000    -0.397455   
O8       O      0.906350000000     0.698280000000     0.670360000000    -0.398258   
O9       O      0.168450000000     0.862400000000     0.811620000000    -0.397172   
O10      O      0.239820000000     0.896420000000     0.836970000000    -0.398359   
O11      O      0.212790000000     0.885120000000     0.773220000000    -0.3981     
O12      O      0.195760000000     0.873820000000     0.875600000000    -0.398177   
O13      O      0.194920000000     0.838430000000     0.872870000000    -0.398174   
O14      O      0.211960000000     0.849730000000     0.770500000000    -0.398076   
O15      O      0.239290000000     0.861170000000     0.834460000000    -0.397065   
O16      O      0.167910000000     0.827140000000     0.809090000000    -0.398213   
O17      O      0.501250000000     0.027100000000     0.975500000000    -0.39837    
O18      O      0.572520000000     0.064210000000     0.001460000000    -0.397083   
O19      O      0.545470000000     0.048650000000     0.937260000000    -0.398364   
O20      O      0.528030000000     0.042510000000     0.039500000000    -0.398185   
O21      O      0.528910000000     0.007980000000     0.042140000000    -0.39837    
O22      O      0.546340000000     0.014110000000     0.939890000000    -0.3981     
O23      O      0.573110000000     0.029510000000     0.003890000000    -0.398131   
O24      O      0.501840000000     0.992410000000     0.977950000000    -0.396916   
O25      O      0.167780000000     0.360320000000     0.309520000000    -0.39838    
O26      O      0.239080000000     0.397030000000     0.335380000000    -0.397361   
O27      O      0.211980000000     0.381110000000     0.271290000000    -0.39838    
O28      O      0.194590000000     0.376130000000     0.373390000000    -0.398559   
O29      O      0.194970000000     0.341370000000     0.377000000000    -0.397581   
O30      O      0.212450000000     0.346380000000     0.274780000000    -0.397568   
O31      O      0.239250000000     0.362140000000     0.338730000000    -0.398014   
O32      O      0.167960000000     0.325450000000     0.312850000000    -0.397286   
O33      O      0.834730000000     0.195640000000     0.145880000000    -0.3974     
O34      O      0.906120000000     0.229970000000     0.171150000000    -0.398438   
O35      O      0.879060000000     0.218550000000     0.107400000000    -0.397974   
O36      O      0.862090000000     0.207190000000     0.209810000000    -0.398144   
O37      O      0.861420000000     0.171890000000     0.207060000000    -0.398239   
O38      O      0.878450000000     0.183260000000     0.104700000000    -0.398123   
O39      O      0.905770000000     0.194810000000     0.168680000000    -0.397118   
O40      O      0.834380000000     0.160490000000     0.143310000000    -0.398492   
O41      O      0.572050000000     0.564820000000     0.505760000000    -0.397569   
O42      O      0.500600000000     0.529010000000     0.480610000000    -0.39766    
O43      O      0.528020000000     0.541210000000     0.544470000000    -0.397939   
O44      O      0.544580000000     0.552620000000     0.441970000000    -0.397872   
O45      O      0.546250000000     0.518480000000     0.439690000000    -0.397254   
O46      O      0.527660000000     0.506050000000     0.541600000000    -0.397306   
O47      O      0.501400000000     0.494470000000     0.477030000000    -0.397941   
O48      O      0.572430000000     0.530000000000     0.504290000000    -0.397768   
O49      O      0.166510000000     0.359480000000     0.839160000000    -0.398579   
O50      O      0.200840000000     0.322440000000     0.813340000000    -0.397584   
O51      O      0.189750000000     0.338400000000     0.877420000000    -0.398346   
O52      O      0.177440000000     0.343630000000     0.775260000000    -0.398242   
O53      O      0.212570000000     0.378300000000     0.771850000000    -0.397885   
O54      O      0.224960000000     0.373000000000     0.874040000000    -0.397805   
O55      O      0.235870000000     0.357220000000     0.810080000000    -0.399016   
O56      O      0.201580000000     0.394230000000     0.836020000000    -0.397712   
O57      O      0.333150000000     0.192750000000     0.667520000000    -0.397859   
O58      O      0.370710000000     0.158950000000     0.641920000000    -0.398872   
O59      O      0.355070000000     0.170160000000     0.705790000000    -0.398176   
O60      O      0.348950000000     0.181420000000     0.603450000000    -0.398319   
O61      O      0.383320000000     0.216870000000     0.606110000000    -0.398259   
O62      O      0.389460000000     0.205600000000     0.708420000000    -0.398363   
O63      O      0.405250000000     0.194260000000     0.644350000000    -0.397621   
O64      O      0.367680000000     0.228060000000     0.669980000000    -0.398921   
O65      O      0.036990000000     0.492060000000     0.976380000000    -0.398704   
O66      O      0.000310000000     0.526960000000     0.000910000000    -0.397664   
O67      O      0.016090000000     0.515130000000     0.937270000000    -0.398434   
O68      O      0.021380000000     0.503770000000     0.039810000000    -0.398211   
O69      O      0.056100000000     0.538890000000     0.042630000000    -0.398381   
O70      O      0.050790000000     0.550270000000     0.940130000000    -0.398253   
O71      O      0.035180000000     0.561950000000     0.003580000000    -0.398467   
O72      O      0.071860000000     0.527060000000     0.978990000000    -0.397537   
O73      O      0.670210000000     0.862450000000     0.336630000000    -0.3979     
O74      O      0.707780000000     0.828570000000     0.311630000000    -0.399116   
O75      O      0.691960000000     0.839810000000     0.375270000000    -0.398197   
O76      O      0.686220000000     0.851060000000     0.272820000000    -0.398281   
O77      O      0.720610000000     0.886490000000     0.275620000000    -0.398249   
O78      O      0.726360000000     0.875230000000     0.378060000000    -0.398284   
O79      O      0.742340000000     0.863850000000     0.314210000000    -0.39768    
O80      O      0.704750000000     0.897740000000     0.339250000000    -0.398826   
O81      O      0.837960000000     0.698360000000     0.170390000000    -0.398984   
O82      O      0.871600000000     0.660620000000     0.145010000000    -0.397866   
O83      O      0.860260000000     0.676510000000     0.209000000000    -0.398389   
O84      O      0.849140000000     0.682650000000     0.106640000000    -0.398165   
O85      O      0.884650000000     0.716980000000     0.104030000000    -0.3982     
O86      O      0.895760000000     0.710830000000     0.206400000000    -0.398201   
O87      O      0.906970000000     0.695090000000     0.142600000000    -0.398694   
O88      O      0.873320000000     0.732850000000     0.167990000000    -0.397611   
O89      O      0.537560000000     0.992770000000     0.478650000000    -0.397241   
O90      O      0.502930000000     0.029690000000     0.503410000000    -0.398651   
O91      O      0.514450000000     0.013980000000     0.439900000000    -0.398222   
O92      O      0.525880000000     0.008620000000     0.542380000000    -0.398292   
O93      O      0.561070000000     0.043270000000     0.539510000000    -0.398103   
O94      O      0.549660000000     0.048610000000     0.436980000000    -0.398019   
O95      O      0.537990000000     0.064480000000     0.500680000000    -0.397701   
O96      O      0.572610000000     0.027570000000     0.475990000000    -0.398813   
O97      O      0.367950000000     0.158360000000     0.169810000000    -0.398517   
O98      O      0.405160000000     0.229780000000     0.144800000000    -0.397472   
O99      O      0.389220000000     0.202330000000     0.208630000000    -0.398115   
O100     O      0.383740000000     0.185510000000     0.106210000000    -0.398101   
O101     O      0.349220000000     0.186420000000     0.103250000000    -0.398031   
O102     O      0.354670000000     0.203180000000     0.205710000000    -0.398144   
O103     O      0.370490000000     0.230400000000     0.142140000000    -0.398286   
O104     O      0.333260000000     0.158930000000     0.167040000000    -0.396997   
O105     O      0.538840000000     0.491950000000     0.001780000000    -0.397487   
O106     O      0.575170000000     0.563570000000     0.977440000000    -0.397613   
O107     O      0.563460000000     0.535690000000     0.040800000000    -0.398325   
O108     O      0.550580000000     0.519800000000     0.938340000000    -0.398617   
O109     O      0.515780000000     0.520030000000     0.942620000000    -0.396944   
O110     O      0.529590000000     0.537760000000     0.044710000000    -0.396723   
O111     O      0.540670000000     0.564470000000     0.980530000000    -0.397956   
O112     O      0.504630000000     0.493260000000     0.006740000000    -0.397851   
O113     O      0.237850000000     0.897120000000     0.309030000000    -0.398321   
O114     O      0.203720000000     0.825760000000     0.334580000000    -0.397153   
O115     O      0.215200000000     0.853010000000     0.270560000000    -0.398155   
O116     O      0.226530000000     0.870180000000     0.372880000000    -0.398202   
O117     O      0.191170000000     0.869410000000     0.375560000000    -0.397995   
O118     O      0.179850000000     0.852270000000     0.273200000000    -0.398075   
O119     O      0.168510000000     0.825300000000     0.337030000000    -0.398487   
O120     O      0.202640000000     0.896650000000     0.311510000000    -0.397405   
O121     O      0.072080000000     0.563270000000     0.478350000000    -0.397169   
O122     O      0.034820000000     0.491940000000     0.503990000000    -0.398031   
O123     O      0.050350000000     0.518830000000     0.440140000000    -0.398305   
O124     O      0.056400000000     0.536080000000     0.542430000000    -0.398367   
O125     O      0.021900000000     0.537030000000     0.539790000000    -0.398348   
O126     O      0.015860000000     0.519800000000     0.437470000000    -0.398379   
O127     O      0.000170000000     0.492610000000     0.501520000000    -0.397266   
O128     O      0.037430000000     0.563940000000     0.475910000000    -0.398545   
O129     O      0.904860000000     0.230800000000     0.643220000000    -0.398245   
O130     O      0.871050000000     0.159480000000     0.668790000000    -0.397465   
O131     O      0.882390000000     0.186700000000     0.604740000000    -0.398026   
O132     O      0.893650000000     0.203890000000     0.707090000000    -0.397994   
O133     O      0.858210000000     0.202950000000     0.709730000000    -0.39826    
O134     O      0.846930000000     0.185720000000     0.607420000000    -0.398086   
O135     O      0.835730000000     0.158800000000     0.671280000000    -0.397977   
O136     O      0.869550000000     0.230150000000     0.645650000000    -0.396984   
O137     O      0.706650000000     0.826230000000     0.839470000000    -0.397975   
O138     O      0.742680000000     0.897600000000     0.813910000000    -0.397303   
O139     O      0.727400000000     0.870340000000     0.878000000000    -0.397865   
O140     O      0.721750000000     0.853220000000     0.775610000000    -0.397745   
O141     O      0.686830000000     0.853350000000     0.772990000000    -0.398527   
O142     O      0.692540000000     0.870580000000     0.875240000000    -0.39837    
O143     O      0.707640000000     0.897480000000     0.811340000000    -0.398373   
O144     O      0.671610000000     0.826140000000     0.837070000000    -0.39723    


