data_structure

_audit_creation_method RASPA-1.0
_audit_creation_date 2023-6-5
_audit_author_name 'Poobodin Mano'

_cell_length_a    63.7167
_cell_length_b    63.7403
_cell_length_c    38.3071
_cell_angle_alpha 89.9374
_cell_angle_beta  90.0625
_cell_angle_gamma 119.95
_cell_volume      134802

_symmetry_cell_setting          triclinic
_symmetry_space_group_name_Hall 'P 1'
_symmetry_space_group_name_H-M  'P 1'
_symmetry_Int_Tables_number     1

_symmetry_equiv_pos_as_xyz 'x,y,z'

loop_
_atom_site_label
_atom_site_type_symbol
_atom_site_fract_x
_atom_site_fract_y
_atom_site_fract_z
_atom_site_charge
C1       C      0.872040000000     0.677890000000     0.643040000000     0.40399    
C2       C      0.777910000000     0.629680000000     0.610480000000     0.409675   
C3       C      0.815930000000     0.652690000000     0.695560000000     0.411441   
C4       C      0.834120000000     0.654950000000     0.559350000000     0.410992   
C5       C      0.200850000000     0.850920000000     0.827940000000     0.409299   
C6       C      0.108670000000     0.801460000000     0.785600000000     0.409724   
C7       C      0.141540000000     0.816650000000     0.872370000000     0.403867   
C8       C      0.169280000000     0.836540000000     0.739240000000     0.410244   
C9       C      0.444060000000     0.968910000000     0.946950000000     0.405165   
C10      C      0.538350000000     0.012760000000     0.977620000000     0.408701   
C11      C      0.501760000000     0.991040000000     0.895670000000     0.412154   
C12      C      0.482230000000     0.991580000000     0.030660000000     0.413055   
C13      C      0.207650000000     0.339960000000     0.301720000000     0.404822   
C14      C      0.113340000000     0.292300000000     0.270280000000     0.410105   
C15      C      0.150070000000     0.314530000000     0.352840000000     0.406154   
C16      C      0.171060000000     0.317450000000     0.217640000000     0.406749   
C17      C      0.778820000000     0.129220000000     0.106440000000     0.405629   
C18      C      0.871820000000     0.174740000000     0.144680000000     0.404879   
C19      C      0.838480000000     0.161950000000     0.058730000000     0.410118   
C20      C      0.812500000000     0.142220000000     0.192500000000     0.405641   
C21      C      0.442540000000     0.464560000000     0.449660000000     0.409842   
C22      C      0.535860000000     0.513890000000     0.486330000000     0.403816   
C23      C      0.501880000000     0.499770000000     0.400390000000     0.408824   
C24      C      0.477380000000     0.479560000000     0.534710000000     0.403913   
C25      C      0.129480000000     0.346820000000     0.802440000000     0.4087     
C26      C      0.177040000000     0.300940000000     0.766550000000     0.410761   
C27      C      0.161540000000     0.321230000000     0.853270000000     0.412216   
C28      C      0.144970000000     0.327360000000     0.718320000000     0.409794   
C29      C      0.336540000000     0.127100000000     0.601180000000     0.410944   
C30      C      0.295350000000     0.176700000000     0.647770000000     0.405774   
C31      C      0.312740000000     0.162920000000     0.558850000000     0.403286   
C32      C      0.319470000000     0.140110000000     0.690910000000     0.409821   
C33      C      0.010560000000     0.463630000000     0.946650000000     0.402541   
C34      C      0.966470000000     0.512890000000     0.982320000000     0.406391   
C35      C      0.987530000000     0.498780000000     0.897380000000     0.407706   
C36      C      0.989550000000     0.477220000000     0.031620000000     0.412507   
C37      C      0.628110000000     0.840670000000     0.317170000000     0.40626    
C38      C      0.671770000000     0.792290000000     0.274860000000     0.410346   
C39      C      0.651860000000     0.804410000000     0.363160000000     0.410187   
C40      C      0.648450000000     0.828030000000     0.230370000000     0.404993   
C41      C      0.798380000000     0.678730000000     0.145640000000     0.406323   
C42      C      0.848430000000     0.635380000000     0.110180000000     0.410837   
C43      C      0.834340000000     0.656400000000     0.194200000000     0.405323   
C44      C      0.812420000000     0.657980000000     0.060140000000     0.406168   
C45      C      0.507590000000     0.961260000000     0.445660000000     0.41146    
C46      C      0.458600000000     0.005280000000     0.482590000000     0.406182   
C47      C      0.474160000000     0.987040000000     0.396410000000     0.407529   
C48      C      0.492010000000     0.979610000000     0.530290000000     0.405833   
C49      C      0.294400000000     0.109270000000     0.142200000000     0.410139   
C50      C      0.337240000000     0.202730000000     0.107100000000     0.404749   
C51      C      0.317420000000     0.168290000000     0.192070000000     0.410973   
C52      C      0.314490000000     0.144720000000     0.057820000000     0.405236   
C53      C      0.460180000000     0.446250000000     0.991420000000     0.409788   
C54      C      0.506400000000     0.536720000000     0.942300000000     0.409866   
C55      C      0.494710000000     0.506300000000     0.033180000000     0.40356    
C56      C      0.471650000000     0.475780000000     0.901530000000     0.408859   
C57      C      0.175670000000     0.873100000000     0.285910000000     0.405505   
C58      C      0.126040000000     0.780500000000     0.325370000000     0.404604   
C59      C      0.139430000000     0.813490000000     0.239200000000     0.410337   
C60      C      0.161750000000     0.839230000000     0.372550000000     0.405613   
C61      C      0.006760000000     0.537340000000     0.442080000000     0.40734    
C62      C      0.963380000000     0.445850000000     0.486870000000     0.405325   
C63      C      0.981730000000     0.477810000000     0.398610000000     0.407372   
C64      C      0.988950000000     0.506540000000     0.531070000000     0.412664   
C65      C      0.839140000000     0.202860000000     0.606260000000     0.409697   
C66      C      0.792600000000     0.109430000000     0.642360000000     0.40569    
C67      C      0.806170000000     0.145630000000     0.557430000000     0.41078    
C68      C      0.826390000000     0.167270000000     0.692300000000     0.405632   
C69      C      0.629280000000     0.777930000000     0.815870000000     0.405148   
C70      C      0.673590000000     0.871250000000     0.779400000000     0.409108   
C71      C      0.654100000000     0.837200000000     0.863980000000     0.409376   
C72      C      0.648910000000     0.812410000000     0.729870000000     0.405513   
C73      C      0.685420000000     0.931940000000     0.752530000000    -0.140451   
C74      C      0.792760000000     0.072850000000     0.654820000000     0.0720385  
C75      C      0.756690000000     0.074510000000     0.662100000000     0.0722963  
C76      C      0.781200000000     0.049010000000     0.667040000000    -0.0930702  
C77      C      0.757160000000     0.005400000000     0.714830000000    -0.037509   
C78      C      0.745530000000     0.982230000000     0.729490000000    -0.0320585  
C79      C      0.744620000000     0.012800000000     0.692310000000    -0.00566259 
C80      C      0.744610000000     0.050750000000     0.674580000000    -0.0930126  
C81      C      0.721040000000     0.965920000000     0.722130000000    -0.015472   
C82      C      0.720190000000     0.927850000000     0.740760000000    -0.106497   
C83      C      0.708490000000     0.973230000000     0.699550000000    -0.0320208  
C84      C      0.708330000000     0.904960000000     0.756010000000     0.0770986  
C85      C      0.674160000000     0.909250000000     0.769310000000     0.183124   
C86      C      0.720160000000     0.996370000000     0.684730000000    -0.037359   
C87      C      0.756900000000     0.037730000000     0.677520000000     0.0486742  
C88      C      0.708600000000     0.941450000000     0.738270000000     0.0695915  
C89      C      0.852030000000     0.263420000000     0.575800000000    -0.140232   
C90      C      0.965390000000     0.411660000000     0.508080000000     0.0721044  
C91      C      0.927340000000     0.409510000000     0.501970000000     0.0722177  
C92      C      0.954080000000     0.387880000000     0.520660000000    -0.092774   
C93      C      0.925150000000     0.342190000000     0.565140000000    -0.0376896  
C94      C      0.912650000000     0.318360000000     0.577610000000    -0.0317261  
C95      C      0.916240000000     0.349150000000     0.536420000000    -0.00543816 
C96      C      0.915480000000     0.385730000000     0.514270000000    -0.0934503  
C97      C      0.891010000000     0.301010000000     0.561570000000    -0.0154669  
C98      C      0.889170000000     0.263200000000     0.584440000000    -0.105467   
C99      C      0.882440000000     0.307930000000     0.532420000000    -0.0317272  
C100     C      0.875790000000     0.238930000000     0.594420000000     0.0767846  
C101     C      0.838760000000     0.238660000000     0.584160000000     0.182275   
C102     C      0.894860000000     0.331690000000     0.520060000000    -0.0379074  
C103     C      0.928810000000     0.374590000000     0.523740000000     0.0487376  
C104     C      0.877310000000     0.275710000000     0.574800000000     0.0695919  
C105     C      0.052480000000     0.596820000000     0.406940000000    -0.141005   
C106     C      0.089750000000     0.746590000000     0.346600000000     0.0716483  
C107     C      0.124990000000     0.743500000000     0.338610000000     0.0713076  
C108     C      0.077150000000     0.722890000000     0.359380000000    -0.0930308  
C109     C      0.051460000000     0.668110000000     0.367470000000    -0.0377029  
C110     C      0.039730000000     0.644190000000     0.379480000000    -0.0320766  
C111     C      0.075890000000     0.684040000000     0.375890000000    -0.00567086 
C112     C      0.112920000000     0.719760000000     0.351070000000    -0.0934274  
C113     C      0.052200000000     0.635660000000     0.400030000000    -0.0156307  
C114     C      0.016570000000     0.597770000000     0.423010000000    -0.105419   
C115     C      0.076440000000     0.651690000000     0.409040000000    -0.0323169  
C116     C      0.005700000000     0.573390000000     0.432260000000     0.0743778  
C117     C      0.040800000000     0.571950000000     0.414630000000     0.183063   
C118     C      0.088120000000     0.675610000000     0.397220000000    -0.0378346  
C119     C      0.088770000000     0.709200000000     0.361980000000     0.0483774  
C120     C      0.040350000000     0.609860000000     0.410740000000     0.0692149  
C121     C      0.518280000000     0.594530000000     0.902630000000    -0.140284   
C122     C      0.631170000000     0.743610000000     0.836700000000     0.0719097  
C123     C      0.593060000000     0.741030000000     0.828510000000     0.0720056  
C124     C      0.619810000000     0.719780000000     0.849060000000    -0.0930117  
C125     C      0.590240000000     0.674710000000     0.894360000000    -0.0376974  
C126     C      0.577860000000     0.651020000000     0.907330000000    -0.0316858  
C127     C      0.582000000000     0.680970000000     0.864200000000    -0.00551851 
C128     C      0.581150000000     0.717140000000     0.840410000000    -0.0933956  
C129     C      0.557050000000     0.633050000000     0.890300000000    -0.0152836  
C130     C      0.555830000000     0.596540000000     0.917430000000    -0.10555    
C131     C      0.549130000000     0.639300000000     0.859760000000    -0.0316479  
C132     C      0.542860000000     0.572640000000     0.929160000000     0.0779591  
C133     C      0.505580000000     0.570080000000     0.912810000000     0.183863   
C134     C      0.561390000000     0.662970000000     0.846970000000    -0.0379238  
C135     C      0.594510000000     0.706270000000     0.851040000000     0.0487361  
C136     C      0.543570000000     0.607860000000     0.904150000000     0.0695783  
C137     C      0.284260000000     0.049260000000     0.169340000000    -0.140386   
C138     C      0.177010000000     0.910240000000     0.272220000000     0.0720759  
C139     C      0.211930000000     0.906620000000     0.264000000000     0.0723029  
C140     C      0.189170000000     0.933810000000     0.259000000000    -0.0931313  
C141     C      0.223810000000     0.987560000000     0.246560000000    -0.0377817  
C142     C      0.235400000000     0.010530000000     0.231230000000    -0.031609   
C143     C      0.225980000000     0.968530000000     0.231900000000    -0.00539634 
C144     C      0.224580000000     0.930090000000     0.250480000000    -0.0931854  
C145     C      0.249340000000     0.014990000000     0.200790000000    -0.0154838  
C146     C      0.248900000000     0.052280000000     0.181240000000    -0.106276   
C147     C      0.251600000000     0.995960000000     0.186270000000    -0.0314587  
C148     C      0.260130000000     0.075060000000     0.165600000000     0.0779411  
C149     C      0.294900000000     0.071840000000     0.152300000000     0.18416    
C150     C      0.240110000000     0.973020000000     0.201680000000    -0.0378753  
C151     C      0.213160000000     0.943920000000     0.247560000000     0.0487417  
C152     C      0.261110000000     0.039280000000     0.183940000000     0.0699013  
C153     C      0.447190000000     0.387170000000     0.027520000000    -0.141343   
C154     C      0.334880000000     0.236830000000     0.086470000000     0.0717238  
C155     C      0.373190000000     0.240010000000     0.095280000000     0.0714306  
C156     C      0.346020000000     0.260660000000     0.074180000000    -0.0928224  
C157     C      0.375020000000     0.315530000000     0.066880000000    -0.0375822  
C158     C      0.387170000000     0.339480000000     0.055010000000    -0.0318918  
C159     C      0.383660000000     0.299690000000     0.058610000000    -0.00556882 
C160     C      0.384890000000     0.263870000000     0.083320000000    -0.0934785  
C161     C      0.408280000000     0.348140000000     0.034760000000    -0.0156848  
C162     C      0.410100000000     0.385750000000     0.011340000000    -0.106533   
C163     C      0.416690000000     0.332230000000     0.025990000000    -0.0321535  
C164     C      0.423360000000     0.410070000000     0.001770000000     0.0774796  
C165     C      0.460150000000     0.412000000000     0.019450000000     0.18331    
C166     C      0.404480000000     0.308270000000     0.037660000000    -0.0377871  
C167     C      0.371340000000     0.274450000000     0.072210000000     0.0484667  
C168     C      0.422020000000     0.373920000000     0.023850000000     0.0698729  
C169     C      0.672130000000     0.806790000000     0.453910000000    -0.141314   
C170     C      0.627540000000     0.801310000000     0.675870000000     0.0723488  
C171     C      0.667960000000     0.809110000000     0.678250000000     0.0719255  
C172     C      0.626790000000     0.797570000000     0.639880000000    -0.0926967  
C173     C      0.634280000000     0.806030000000     0.562550000000    -0.0372188  
C174     C      0.634710000000     0.804730000000     0.526200000000    -0.031897   
C175     C      0.647440000000     0.798390000000     0.583440000000    -0.00532974 
C176     C      0.668000000000     0.805950000000     0.642140000000    -0.0923012  
C177     C      0.648640000000     0.796190000000     0.509720000000    -0.0156687  
C178     C      0.628660000000     0.785400000000     0.451220000000    -0.106745   
C179     C      0.661830000000     0.788550000000     0.530300000000    -0.0322     
C180     C      0.630040000000     0.786920000000     0.414910000000     0.0785126  
C181     C      0.673150000000     0.807890000000     0.417220000000     0.184913   
C182     C      0.661070000000     0.789430000000     0.566760000000    -0.0375544  
C183     C      0.647340000000     0.800400000000     0.622280000000     0.0482217  
C184     C      0.649830000000     0.795970000000     0.471110000000     0.0703866  
C185     C      0.675960000000     0.856180000000     0.953900000000    -0.140301   
C186     C      0.628630000000     0.818830000000     0.175110000000     0.0714134  
C187     C      0.668710000000     0.851870000000     0.180410000000     0.071926   
C188     C      0.629060000000     0.822530000000     0.139120000000    -0.0938075  
C189     C      0.633690000000     0.844950000000     0.065840000000    -0.0382872  
C190     C      0.634730000000     0.846230000000     0.029380000000    -0.0317629  
C191     C      0.651640000000     0.843320000000     0.084890000000    -0.00576664 
C192     C      0.669920000000     0.855730000000     0.144390000000    -0.0938606  
C193     C      0.653480000000     0.845380000000     0.011130000000    -0.0152584  
C194     C      0.632480000000     0.834330000000     0.952780000000    -0.10571    
C195     C      0.671490000000     0.843880000000     0.030490000000    -0.0314433  
C196     C      0.633260000000     0.833370000000     0.916480000000     0.0778652  
C197     C      0.676360000000     0.855240000000     0.917230000000     0.18398    
C198     C      0.670690000000     0.843090000000     0.066930000000    -0.0381415  
C199     C      0.650050000000     0.840790000000     0.123340000000     0.0488412  
C200     C      0.653970000000     0.845350000000     0.972140000000     0.0690361  
C201     C      0.683550000000     0.746040000000     0.235530000000    -0.141438   
C202     C      0.797790000000     0.714180000000     0.163620000000     0.0722374  
C203     C      0.761340000000     0.676360000000     0.162790000000     0.0724095  
C204     C      0.785570000000     0.725410000000     0.177240000000    -0.0927866  
C205     C      0.754150000000     0.747600000000     0.190110000000    -0.0374755  
C206     C      0.741830000000     0.758560000000     0.204290000000    -0.0320618  
C207     C      0.747310000000     0.723520000000     0.198610000000    -0.00552183 
C208     C      0.748480000000     0.687100000000     0.175780000000    -0.0928373  
C209     C      0.722120000000     0.745600000000     0.226810000000    -0.016173   
C210     C      0.720660000000     0.779740000000     0.256130000000    -0.107717   
C211     C      0.715080000000     0.721560000000     0.235240000000    -0.0322053  
C212     C      0.707780000000     0.790900000000     0.267000000000     0.0773134  
C213     C      0.671070000000     0.758290000000     0.244470000000     0.1834     
C214     C      0.727680000000     0.710700000000     0.221580000000    -0.0374731  
C215     C      0.760590000000     0.711890000000     0.183660000000     0.0485318  
C216     C      0.708530000000     0.757020000000     0.240490000000     0.0705368  
C217     C      0.526420000000     0.915610000000     0.434180000000    -0.14001    
C218     C      0.592250000000     0.843020000000     0.324050000000     0.0723785  
C219     C      0.629840000000     0.875270000000     0.343680000000     0.072442   
C220     C      0.580350000000     0.855130000000     0.335440000000    -0.0927806  
C221     C      0.556470000000     0.877000000000     0.377780000000    -0.0374419  
C222     C      0.544600000000     0.888780000000     0.390680000000    -0.0316286  
C223     C      0.580620000000     0.890250000000     0.366150000000    -0.00501443 
C224     C      0.618400000000     0.887550000000     0.356360000000    -0.0924076  
C225     C      0.556690000000     0.914180000000     0.393390000000    -0.0146845  
C226     C      0.550170000000     0.950000000000     0.397400000000    -0.105482   
C227     C      0.580900000000     0.927440000000     0.382010000000    -0.0316013  
C228     C      0.538420000000     0.961430000000     0.411780000000     0.0793835  
C229     C      0.514760000000     0.927440000000     0.448400000000     0.184781   
C230     C      0.592560000000     0.915680000000     0.368180000000    -0.0372647  
C231     C      0.593280000000     0.877570000000     0.352370000000     0.0482079  
C232     C      0.544170000000     0.926690000000     0.408280000000     0.0693117  
C233     C      0.012130000000     0.526750000000     0.620060000000    -0.142615   
C234     C      0.967480000000     0.489370000000     0.842300000000     0.0729321  
C235     C      0.007830000000     0.521980000000     0.846940000000     0.0707667  
C236     C      0.967640000000     0.493040000000     0.806330000000    -0.0939831  
C237     C      0.971550000000     0.515610000000     0.733510000000    -0.0381875  
C238     C      0.972090000000     0.517000000000     0.697050000000    -0.0317807  
C239     C      0.989690000000     0.513810000000     0.751770000000    -0.00410523 
C240     C      0.008760000000     0.525810000000     0.810910000000    -0.0959761  
C241     C      0.990530000000     0.516100000000     0.677990000000    -0.0135001  
C242     C      0.968640000000     0.505040000000     0.620280000000    -0.105842   
C243     C      0.008760000000     0.514460000000     0.696550000000    -0.0333545  
C244     C      0.968870000000     0.503780000000     0.583960000000     0.0790749  
C245     C      0.011970000000     0.525480000000     0.583400000000     0.183677   
C246     C      0.008450000000     0.513560000000     0.733000000000    -0.039795   
C247     C      0.988580000000     0.511120000000     0.790210000000     0.0509926  
C248     C      0.990420000000     0.516050000000     0.638990000000     0.0712454  
C249     C      0.008600000000     0.479340000000     0.123150000000    -0.143846   
C250     C      0.960420000000     0.466680000000     0.344520000000     0.0727819  
C251     C      0.000900000000     0.474640000000     0.347100000000     0.0698105  
C252     C      0.960000000000     0.463590000000     0.308390000000    -0.0935073  
C253     C      0.968530000000     0.474360000000     0.231580000000    -0.0369368  
C254     C      0.969720000000     0.474440000000     0.195170000000    -0.0315976  
C255     C      0.981440000000     0.466150000000     0.251920000000    -0.00645249 
C256     C      0.001260000000     0.472150000000     0.310900000000    -0.0953078  
C257     C      0.984170000000     0.466730000000     0.178170000000    -0.016814   
C258     C      0.965190000000     0.457360000000     0.119040000000    -0.107917   
C259     C      0.997070000000     0.458480000000     0.198200000000    -0.0300882  
C260     C      0.967130000000     0.459510000000     0.082820000000     0.0794092  
C261     C      0.010210000000     0.481070000000     0.086510000000     0.183473   
C262     C      0.995540000000     0.457970000000     0.234660000000    -0.0353725  
C263     C      0.980780000000     0.466970000000     0.290860000000     0.0508992  
C264     C      0.986020000000     0.467760000000     0.139600000000     0.0733386  
C265     C      0.897760000000     0.623750000000     0.085200000000    -0.140764   
C266     C      0.930320000000     0.514040000000     0.993700000000     0.0721513  
C267     C      0.968520000000     0.549340000000     0.001990000000     0.0723705  
C268     C      0.918520000000     0.526200000000     0.005290000000    -0.0933615  
C269     C      0.899610000000     0.551190000000     0.052120000000    -0.0376545  
C270     C      0.888130000000     0.563200000000     0.065600000000    -0.0318937  
C271     C      0.919710000000     0.563250000000     0.029860000000    -0.00555334 
C272     C      0.957290000000     0.562030000000     0.013800000000    -0.0930537  
C273     C      0.896490000000     0.587580000000     0.057220000000    -0.0156627  
C274     C      0.859100000000     0.588640000000     0.073880000000    -0.106805   
C275     C      0.916630000000     0.599700000000     0.035040000000    -0.0317912  
C276     C      0.847860000000     0.600600000000     0.088080000000     0.0784022  
C277     C      0.886110000000     0.635170000000     0.100870000000     0.184215   
C278     C      0.928090000000     0.587660000000     0.021460000000    -0.037646   
C279     C      0.931990000000     0.550410000000     0.015900000000     0.0487853  
C280     C      0.884290000000     0.600290000000     0.071830000000     0.0702199  
C281     C      0.341010000000     0.143450000000     0.781240000000    -0.141011   
C282     C      0.293990000000     0.133920000000     0.003160000000     0.0720809  
C283     C      0.334720000000     0.142750000000     0.006660000000     0.0712338  
C284     C      0.293970000000     0.130910000000     0.967090000000    -0.0928816  
C285     C      0.302740000000     0.141300000000     0.890410000000    -0.0373163  
C286     C      0.303570000000     0.140550000000     0.854050000000    -0.031981   
C287     C      0.315890000000     0.133600000000     0.911170000000    -0.00547269 
C288     C      0.335480000000     0.140340000000     0.970480000000    -0.0926396  
C289     C      0.317900000000     0.132530000000     0.837480000000    -0.0157993  
C290     C      0.297530000000     0.121130000000     0.779450000000    -0.107171   
C291     C      0.331270000000     0.125050000000     0.857920000000    -0.0322879  
C292     C      0.298520000000     0.122530000000     0.743160000000     0.0784504  
C293     C      0.341640000000     0.144400000000     0.744500000000     0.184187   
C294     C      0.330120000000     0.125370000000     0.894390000000    -0.0377211  
C295     C      0.315050000000     0.134690000000     0.950040000000     0.0481155  
C296     C      0.318880000000     0.132250000000     0.798880000000     0.0703024  
C297     C      0.338390000000     0.187590000000     0.282200000000    -0.140172   
C298     C      0.291910000000     0.152950000000     0.504330000000     0.0717351  
C299     C      0.332120000000     0.185920000000     0.507930000000     0.0703561  
C300     C      0.291840000000     0.155900000000     0.468180000000    -0.0934912  
C301     C      0.295660000000     0.176260000000     0.393570000000    -0.0381334  
C302     C      0.296620000000     0.177040000000     0.357070000000    -0.0317835  
C303     C      0.313900000000     0.175350000000     0.412920000000    -0.00584235 
C304     C      0.332820000000     0.189070000000     0.471790000000    -0.0942131  
C305     C      0.315600000000     0.176430000000     0.339110000000    -0.015178   
C306     C      0.294940000000     0.164810000000     0.280510000000    -0.105552   
C307     C      0.333800000000     0.175470000000     0.358770000000    -0.0316301  
C308     C      0.296000000000     0.163850000000     0.244230000000     0.0787146  
C309     C      0.339070000000     0.186670000000     0.245560000000     0.184775   
C310     C      0.333060000000     0.175160000000     0.395200000000    -0.0379548  
C311     C      0.312680000000     0.173720000000     0.451490000000     0.0486858  
C312     C      0.316290000000     0.176290000000     0.300150000000     0.0693151  
C313     C      0.377680000000     0.113030000000     0.552540000000    -0.140308   
C314     C      0.458840000000     0.039520000000     0.507400000000     0.0727643  
C315     C      0.421550000000     0.005080000000     0.492010000000     0.0722895  
C316     C      0.446750000000     0.051090000000     0.520170000000    -0.0925818  
C317     C      0.419990000000     0.077940000000     0.531350000000    -0.0374628  
C318     C      0.408040000000     0.089800000000     0.543520000000    -0.0316069  
C319     C      0.408280000000     0.052480000000     0.530350000000    -0.00471963 
C320     C      0.408900000000     0.016540000000     0.503200000000    -0.092005   
C321     C      0.383550000000     0.076740000000     0.553660000000    -0.0145343  
C322     C      0.350730000000     0.078980000000     0.587870000000    -0.105078   
C323     C      0.371700000000     0.051270000000     0.552330000000    -0.0315847  
C324     C      0.338980000000     0.091520000000     0.597990000000     0.0790089  
C325     C      0.365850000000     0.125480000000     0.563400000000     0.184843   
C326     C      0.383970000000     0.039340000000     0.541440000000    -0.0373222  
C327     C      0.421410000000     0.039860000000     0.517840000000     0.0480113  
C328     C      0.370560000000     0.089720000000     0.565050000000     0.0688372  
C329     C      0.115620000000     0.394280000000     0.829030000000    -0.141744   
C330     C      0.008900000000     0.426880000000     0.929580000000     0.0687645  
C331     C      0.046510000000     0.463550000000     0.930180000000     0.0710327  
C332     C      0.020120000000     0.414390000000     0.916880000000    -0.0919193  
C333     C      0.044930000000     0.395510000000     0.869750000000    -0.0376469  
C334     C      0.056520000000     0.384210000000     0.854220000000    -0.0322456  
C335     C      0.057150000000     0.414200000000     0.894270000000    -0.00555141 
C336     C      0.058230000000     0.451720000000     0.916990000000    -0.0929533  
C337     C      0.080700000000     0.391580000000     0.862440000000    -0.0161856  
C338     C      0.082360000000     0.355020000000     0.843390000000    -0.107389   
C339     C      0.092950000000     0.410120000000     0.886950000000    -0.0323393  
C340     C      0.094520000000     0.344530000000     0.827460000000     0.0764997  
C341     C      0.126940000000     0.383330000000     0.811190000000     0.182025   
C342     C      0.081250000000     0.421170000000     0.902930000000    -0.0378754  
C343     C      0.045050000000     0.426840000000     0.909860000000     0.0476336  
C344     C      0.093200000000     0.380130000000     0.845130000000     0.0698927  
C345     C      0.189660000000     0.253920000000     0.733530000000    -0.141319   
C346     C      0.298840000000     0.212890000000     0.671420000000     0.0721881  
C347     C      0.260030000000     0.178450000000     0.663090000000     0.071994   
C348     C      0.288400000000     0.225790000000     0.685360000000    -0.0930858  
C349     C      0.260860000000     0.252860000000     0.695090000000    -0.0375366  
C350     C      0.249320000000     0.265130000000     0.707510000000    -0.0318871  
C351     C      0.251620000000     0.228210000000     0.702860000000    -0.00558294 
C352     C      0.248990000000     0.190850000000     0.676720000000    -0.0931902  
C353     C      0.228210000000     0.252990000000     0.727810000000    -0.0157005  
C354     C      0.226760000000     0.289060000000     0.750910000000    -0.106425   
C355     C      0.219290000000     0.228530000000     0.736270000000    -0.032145   
C356     C      0.213680000000     0.300570000000     0.759300000000     0.0777482  
C357     C      0.176980000000     0.266260000000     0.740260000000     0.184264   
C358     C      0.230900000000     0.216310000000     0.724050000000    -0.0376804  
C359     C      0.263170000000     0.214790000000     0.688250000000     0.0485481  
C360     C      0.214710000000     0.265360000000     0.738320000000     0.0700637  
C361     C      0.474070000000     0.454750000000     0.812930000000    -0.140302   
C362     C      0.466530000000     0.489620000000     0.589120000000     0.071645   
C363     C      0.474550000000     0.457130000000     0.586090000000     0.0710356  
C364     C      0.463090000000     0.486520000000     0.625190000000    -0.0933564  
C365     C      0.444930000000     0.465500000000     0.698820000000    -0.0383018  
C366     C      0.444140000000     0.464550000000     0.735330000000    -0.0319115  
C367     C      0.464670000000     0.466740000000     0.680770000000    -0.00566106 
C368     C      0.471710000000     0.453860000000     0.622230000000    -0.0935131  
C369     C      0.463340000000     0.465290000000     0.754660000000    -0.0151146  
C370     C      0.452730000000     0.476910000000     0.812140000000    -0.105625   
C371     C      0.483040000000     0.466440000000     0.736310000000    -0.0315743  
C372     C      0.454270000000     0.478380000000     0.848480000000     0.0778272  
C373     C      0.475230000000     0.456240000000     0.849580000000     0.184736   
C374     C      0.483580000000     0.466930000000     0.699840000000    -0.0379877  
C375     C      0.466140000000     0.468800000000     0.642200000000     0.0484834  
C376     C      0.463270000000     0.465580000000     0.793700000000     0.0689997  
C377     C      0.515700000000     0.529490000000     0.313960000000    -0.140044   
C378     C      0.482690000000     0.513060000000     0.089050000000     0.0712432  
C379     C      0.519710000000     0.513080000000     0.083080000000     0.0705985  
C380     C      0.485550000000     0.515070000000     0.125300000000    -0.0923932  
C381     C      0.516380000000     0.501000000000     0.195550000000    -0.0375794  
C382     C      0.517140000000     0.499480000000     0.231890000000    -0.0320906  
C383     C      0.507790000000     0.515200000000     0.179700000000    -0.00542711 
C384     C      0.523180000000     0.515190000000     0.119210000000    -0.0930862  
C385     C      0.509250000000     0.512040000000     0.253410000000    -0.0151371  
C386     C      0.502550000000     0.487260000000     0.307590000000    -0.105508   
C387     C      0.501060000000     0.526590000000     0.237600000000    -0.0318978  
C388     C      0.501710000000     0.484990000000     0.343840000000     0.0776279  
C389     C      0.515550000000     0.527020000000     0.350520000000     0.183655   
C390     C      0.500340000000     0.528150000000     0.201210000000    -0.0377767  
C391     C      0.505700000000     0.515580000000     0.140960000000     0.0478319  
C392     C      0.509070000000     0.509550000000     0.292130000000     0.0690226  
C393     C      0.852400000000     0.191160000000     0.972100000000    -0.140709   
C394     C      0.814410000000     0.172450000000     0.749100000000     0.0722456  
C395     C      0.851730000000     0.173290000000     0.741460000000     0.0721104  
C396     C      0.817790000000     0.174380000000     0.785250000000    -0.0929225  
C397     C      0.850360000000     0.161410000000     0.853850000000    -0.0374207  
C398     C      0.851980000000     0.160320000000     0.890100000000    -0.0319055  
C399     C      0.841340000000     0.175380000000     0.838480000000    -0.00549639 
C400     C      0.855700000000     0.175300000000     0.777460000000    -0.0931676  
C401     C      0.844560000000     0.173110000000     0.911940000000    -0.015308   
C402     C      0.838510000000     0.148720000000     0.966210000000    -0.106042   
C403     C      0.835960000000     0.187440000000     0.896600000000    -0.0317404  
C404     C      0.838000000000     0.146700000000     0.002460000000     0.0782648  
C405     C      0.852590000000     0.188920000000     0.008650000000     0.184502   
C406     C      0.834360000000     0.188560000000     0.860300000000    -0.037702   
C407     C      0.838420000000     0.175380000000     0.799940000000     0.0486679  
C408     C      0.845130000000     0.170970000000     0.950570000000     0.0697654  
C409     C      0.786290000000     0.144440000000     0.466200000000    -0.139216   
C410     C      0.807240000000     0.118670000000     0.243520000000     0.0722498  
C411     C      0.801280000000     0.152500000000     0.246380000000     0.0725591  
C412     C      0.803360000000     0.114950000000     0.279440000000    -0.0937676  
C413     C      0.814900000000     0.128240000000     0.357200000000    -0.0377801  
C414     C      0.814360000000     0.128580000000     0.393620000000    -0.0313588  
C415     C      0.796220000000     0.128060000000     0.337600000000    -0.00566695 
C416     C      0.796790000000     0.148970000000     0.282190000000    -0.0937141  
C417     C      0.794850000000     0.128290000000     0.411370000000    -0.0151199  
C418     C      0.807250000000     0.122080000000     0.471150000000    -0.105603   
C419     C      0.775630000000     0.127040000000     0.391510000000    -0.0316615  
C420     C      0.810430000000     0.127420000000     0.506660000000     0.0789196  
C421     C      0.789910000000     0.149950000000     0.502060000000     0.182796   
C422     C      0.776450000000     0.127220000000     0.355010000000    -0.0383402  
C423     C      0.798290000000     0.130320000000     0.299160000000     0.0491522  
C424     C      0.795530000000     0.131010000000     0.450150000000     0.0692149  
C425     C      0.118370000000     0.312390000000     0.630100000000    -0.141893   
C426     C      0.142640000000     0.332120000000     0.402790000000     0.0720392  
C427     C      0.144660000000     0.296110000000     0.408660000000     0.0719288  
C428     C      0.139590000000     0.332780000000     0.438790000000    -0.0937732  
C429     C      0.121800000000     0.321430000000     0.514760000000    -0.0383528  
C430     C      0.121630000000     0.323640000000     0.551070000000    -0.0319541  
C431     C      0.138820000000     0.316700000000     0.498650000000    -0.00599339 
C432     C      0.141930000000     0.296390000000     0.444740000000    -0.0942588  
C433     C      0.138740000000     0.321570000000     0.571720000000    -0.0164786  
C434     C      0.161170000000     0.340190000000     0.626690000000    -0.107789   
C435     C      0.155660000000     0.316760000000     0.555580000000    -0.0318217  
C436     C      0.162000000000     0.341970000000     0.662900000000     0.0777935  
C437     C      0.119490000000     0.314800000000     0.666670000000     0.183023   
C438     C      0.155620000000     0.314220000000     0.519430000000    -0.0379393  
C439     C      0.139690000000     0.315050000000     0.460210000000     0.0490387  
C440     C      0.139360000000     0.324750000000     0.610020000000     0.0703977  
C441     C      0.181890000000     0.339380000000     0.943950000000    -0.140676   
C442     C      0.173600000000     0.297440000000     0.166690000000     0.0725734  
C443     C      0.179880000000     0.337320000000     0.162500000000     0.0726061  
C444     C      0.175490000000     0.296380000000     0.130490000000    -0.0942126  
C445     C      0.159690000000     0.296120000000     0.054090000000    -0.0379061  
C446     C      0.158100000000     0.296280000000     0.017730000000    -0.0313454  
C447     C      0.179620000000     0.314840000000     0.071490000000    -0.00580124 
C448     C      0.182400000000     0.337050000000     0.126350000000    -0.0938934  
C449     C      0.176630000000     0.314980000000     0.997970000000    -0.0155111  
C450     C      0.160880000000     0.296040000000     0.939070000000    -0.106054   
C451     C      0.197210000000     0.332980000000     0.015530000000    -0.0316126  
C452     C      0.156610000000     0.298210000000     0.903890000000     0.079151   
C453     C      0.176990000000     0.341210000000     0.908680000000     0.184905   
C454     C      0.198550000000     0.333060000000     0.051930000000    -0.0384158  
C455     C      0.179690000000     0.316240000000     0.109980000000     0.0494075  
C456     C      0.173630000000     0.316760000000     0.959660000000     0.0698879  
C457     C      0.050870000000     0.243820000000     0.250140000000    -0.140506   
C458     C      0.907990000000     0.210950000000     0.160220000000     0.0717342  
C459     C      0.907100000000     0.173360000000     0.161660000000     0.0720555  
C460     C      0.931990000000     0.222930000000     0.171790000000    -0.0932132  
C461     C      0.977330000000     0.242160000000     0.215440000000    -0.0332308  
C462     C      0.000980000000     0.253670000000     0.228440000000    -0.0363477  
C463     C      0.969110000000     0.222180000000     0.192810000000    -0.00765997 
C464     C      0.930960000000     0.184700000000     0.173780000000    -0.0930349  
C465     C      0.016890000000     0.245280000000     0.219590000000    -0.0135271  
C466     C      0.056340000000     0.282410000000     0.232800000000    -0.106361   
C467     C      0.008770000000     0.225290000000     0.197220000000    -0.0363646  
C468     C      0.079740000000     0.293480000000     0.246360000000     0.0773705  
C469     C      0.074010000000     0.255440000000     0.265630000000     0.183119   
C470     C      0.985230000000     0.213980000000     0.183740000000    -0.0333123  
C471     C      0.943780000000     0.209820000000     0.179150000000     0.0492494  
C472     C      0.041830000000     0.257310000000     0.233900000000     0.0689484  
C473     C      0.382740000000     0.414950000000     0.421780000000    -0.140716   
C474     C      0.243720000000     0.377110000000     0.313930000000     0.0720617  
C475     C      0.242890000000     0.339900000000     0.322760000000     0.0716802  
C476     C      0.267270000000     0.389900000000     0.327130000000    -0.0929312  
C477     C      0.309460000000     0.410740000000     0.377380000000    -0.037598   
C478     C      0.332190000000     0.422980000000     0.393380000000    -0.0319841  
C479     C      0.303270000000     0.390750000000     0.355500000000    -0.00538041 
C480     C      0.266410000000     0.352140000000     0.336310000000    -0.0925096  
C481     C      0.349250000000     0.415460000000     0.388110000000    -0.015402   
C482     C      0.386240000000     0.453330000000     0.408190000000    -0.105971   
C483     C      0.343150000000     0.395540000000     0.366180000000    -0.0319873  
C484     C      0.408780000000     0.464870000000     0.424630000000     0.0777553  
C485     C      0.404990000000     0.426880000000     0.439660000000     0.184104   
C486     C      0.320450000000     0.383370000000     0.350000000000    -0.0376199  
C487     C      0.278800000000     0.377450000000     0.339140000000     0.0483637  
C488     C      0.373190000000     0.428110000000     0.405860000000     0.0696443  
C489     C      0.514250000000     0.973660000000     0.809600000000    -0.141348   
C490     C      0.479060000000     0.960510000000     0.585770000000     0.0714348  
C491     C      0.517620000000     0.995750000000     0.579860000000     0.0725467  
C492     C      0.482270000000     0.960520000000     0.621840000000    -0.0934443  
C493     C      0.497660000000     0.960150000000     0.696930000000    -0.03798    
C494     C      0.498740000000     0.962210000000     0.733310000000    -0.0317316  
C495     C      0.506040000000     0.980870000000     0.675830000000    -0.00551523 
C496     C      0.521480000000     0.996190000000     0.615710000000    -0.0939444  
C497     C      0.508190000000     0.985020000000     0.749250000000    -0.0158162  
C498     C      0.501800000000     0.003320000000     0.802870000000    -0.107455   
C499     C      0.517150000000     0.005740000000     0.728120000000    -0.0319177  
C500     C      0.501150000000     0.004980000000     0.838970000000     0.0789897  
C501     C      0.514370000000     0.976260000000     0.846080000000     0.183814   
C502     C      0.516020000000     0.003690000000     0.691870000000    -0.0376726  
C503     C      0.503450000000     0.978840000000     0.637300000000     0.0489053  
C504     C      0.507950000000     0.987220000000     0.787760000000     0.0707505  
C505     C      0.483830000000     0.014120000000     0.119840000000    -0.142366   
C506     C      0.453660000000     0.968810000000     0.343280000000     0.07236    
C507     C      0.484510000000     0.010060000000     0.344060000000     0.0730313  
C508     C      0.451770000000     0.969570000000     0.307000000000    -0.0928411  
C509     C      0.446020000000     0.978080000000     0.230200000000    -0.0375975  
C510     C      0.446970000000     0.978240000000     0.193680000000    -0.0320054  
C511     C      0.467270000000     0.991660000000     0.249960000000    -0.00537504 
C512     C      0.482760000000     0.011590000000     0.308020000000    -0.093896   
C513     C      0.469110000000     0.992250000000     0.176330000000    -0.015966   
C514     C      0.461520000000     0.970640000000     0.119390000000    -0.107104   
C515     C      0.490240000000     0.005860000000     0.196000000000    -0.0318268  
C516     C      0.466000000000     0.971120000000     0.083690000000     0.0794152  
C517     C      0.488910000000     0.014290000000     0.084180000000     0.18494    
C518     C      0.489380000000     0.005460000000     0.232310000000    -0.0376141  
C519     C      0.466870000000     0.991010000000     0.288790000000     0.0490415  
C520     C      0.470700000000     0.992290000000     0.137830000000     0.0713475  
C521     C      0.599230000000     0.023790000000     0.001450000000    -0.140456   
C522     C      0.742720000000     0.130140000000     0.093370000000     0.0721727  
C523     C      0.743570000000     0.093620000000     0.086590000000     0.0721244  
C524     C      0.718840000000     0.118900000000     0.081390000000    -0.0931116  
C525     C      0.674530000000     0.095040000000     0.034900000000    -0.0376617  
C526     C      0.651050000000     0.083700000000     0.021290000000    -0.0321381  
C527     C      0.681920000000     0.082480000000     0.057390000000    -0.00555237 
C528     C      0.719720000000     0.081840000000     0.074370000000    -0.0929717  
C529     C      0.634420000000     0.059490000000     0.029700000000    -0.0155845  
C530     C      0.596450000000     0.059410000000     0.012330000000    -0.106774   
C531     C      0.641740000000     0.046920000000     0.052220000000    -0.0321178  
C532     C      0.573150000000     0.047680000000     0.998320000000     0.0770071  
C533     C      0.576110000000     0.012640000000     0.985950000000     0.182917   
C534     C      0.665210000000     0.058300000000     0.065980000000    -0.0377458  
C535     C      0.707070000000     0.094500000000     0.071400000000     0.0485676  
C536     C      0.609590000000     0.047320000000     0.014690000000     0.0694271  
C537     C      0.184650000000     0.865710000000     0.652560000000    -0.140462   
C538     C      0.150240000000     0.846070000000     0.428680000000     0.0722691  
C539     C      0.186840000000     0.845350000000     0.422100000000     0.0721105  
C540     C      0.153540000000     0.848500000000     0.464800000000    -0.0928706  
C541     C      0.185190000000     0.835560000000     0.535110000000    -0.0373927  
C542     C      0.186310000000     0.834730000000     0.571470000000    -0.0318964  
C543     C      0.176490000000     0.849500000000     0.518760000000    -0.00538781 
C544     C      0.190780000000     0.847910000000     0.458120000000    -0.0929305  
C545     C      0.178610000000     0.847690000000     0.592490000000    -0.0152117  
C546     C      0.171820000000     0.823480000000     0.647230000000    -0.105836   
C547     C      0.170410000000     0.862050000000     0.576150000000    -0.0317444  
C548     C      0.170480000000     0.821480000000     0.683490000000     0.0781281  
C549     C      0.183900000000     0.863490000000     0.689170000000     0.184228   
C550     C      0.169410000000     0.862980000000     0.539750000000    -0.0375989  
C551     C      0.173780000000     0.849010000000     0.480090000000     0.0485407  
C552     C      0.178370000000     0.845620000000     0.631240000000     0.0695317  
C553     C      0.140620000000     0.793190000000     0.149650000000    -0.140477   
C554     C      0.131020000000     0.827550000000     0.926400000000     0.0707342  
C555     C      0.137730000000     0.794170000000     0.924000000000     0.0709964  
C556     C      0.127850000000     0.824930000000     0.962560000000    -0.0936306  
C557     C      0.110610000000     0.805070000000     0.037250000000    -0.0383683  
C558     C      0.110450000000     0.804330000000     0.073770000000    -0.0318641  
C559     C      0.129780000000     0.805630000000     0.018460000000    -0.00579976 
C560     C      0.135110000000     0.791340000000     0.960160000000    -0.0940203  
C561     C      0.129710000000     0.804600000000     0.092300000000    -0.0153044  
C562     C      0.120450000000     0.816490000000     0.150520000000    -0.105502   
C563     C      0.148900000000     0.805240000000     0.073200000000    -0.0316085  
C564     C      0.122360000000     0.817610000000     0.186820000000     0.0783794  
C565     C      0.142150000000     0.794310000000     0.186280000000     0.184629   
C566     C      0.148810000000     0.805530000000     0.036760000000    -0.0381893  
C567     C      0.130470000000     0.807040000000     0.979870000000     0.0483774  
C568     C      0.130190000000     0.804720000000     0.131280000000     0.069216   
C569     C      0.259110000000     0.898290000000     0.865330000000    -0.140822   
C570     C      0.407660000000     0.933090000000     0.931140000000     0.0720446  
C571     C      0.408780000000     0.970800000000     0.931450000000     0.0718352  
C572     C      0.383810000000     0.921480000000     0.918970000000    -0.0926591  
C573     C      0.329840000000     0.898660000000     0.909310000000    -0.0374994  
C574     C      0.306190000000     0.887160000000     0.896340000000    -0.0321862  
C575     C      0.346600000000     0.922630000000     0.899620000000    -0.00546654 
C576     C      0.384800000000     0.959700000000     0.919840000000    -0.0926232  
C577     C      0.298570000000     0.899450000000     0.873840000000    -0.0158629  
C578     C      0.262550000000     0.864200000000     0.846880000000    -0.106823   
C579     C      0.315080000000     0.923430000000     0.864360000000    -0.0323129  
C580     C      0.238360000000     0.852590000000     0.836550000000     0.0769998  
C581     C      0.234270000000     0.885670000000     0.856940000000     0.18236    
C582     C      0.338890000000     0.934830000000     0.876830000000    -0.037491   
C583     C      0.372000000000     0.934740000000     0.913030000000     0.0481672  
C584     C      0.273230000000     0.887370000000     0.861110000000     0.0698475  
C585     C      0.813260000000     0.639140000000     0.789700000000    -0.140967   
C586     C      0.787400000000     0.638760000000     0.010630000000     0.0720701  
C587     C      0.823060000000     0.676900000000     0.004310000000     0.0726043  
C588     C      0.783190000000     0.637660000000     0.974680000000    -0.093234   
C589     C      0.803080000000     0.675040000000     0.893730000000    -0.0375746  
C590     C      0.803570000000     0.673810000000     0.857330000000    -0.0317439  
C591     C      0.796960000000     0.654480000000     0.914290000000    -0.00550509 
C592     C      0.819430000000     0.676370000000     0.968320000000    -0.0930825  
C593     C      0.797910000000     0.651960000000     0.840660000000    -0.0153684  
C594     C      0.796130000000     0.664610000000     0.779010000000    -0.106095   
C595     C      0.790530000000     0.631120000000     0.861140000000    -0.0319614  
C596     C      0.801570000000     0.665060000000     0.743640000000     0.0782958  
C597     C      0.819620000000     0.640700000000     0.754310000000     0.184969   
C598     C      0.790100000000     0.632360000000     0.897510000000    -0.0374742  
C599     C      0.799550000000     0.656390000000     0.952930000000     0.0487293  
C600     C      0.801810000000     0.651400000000     0.802480000000     0.0700687  
C601     C      0.834670000000     0.635750000000     0.468490000000    -0.1401     
C602     C      0.857960000000     0.676950000000     0.244160000000     0.0716721  
C603     C      0.825590000000     0.636510000000     0.249360000000     0.0721743  
C604     C      0.862120000000     0.678080000000     0.280080000000    -0.0941664  
C605     C      0.849260000000     0.677880000000     0.357730000000    -0.0377673  
C606     C      0.849100000000     0.677920000000     0.394170000000    -0.0313995  
C607     C      0.850370000000     0.659430000000     0.339400000000    -0.00581674 
C608     C      0.829600000000     0.636870000000     0.285250000000    -0.0938375  
C609     C      0.850480000000     0.659700000000     0.413150000000    -0.0152804  
C610     C      0.855770000000     0.679120000000     0.472140000000    -0.105825   
C611     C      0.852820000000     0.641910000000     0.394550000000    -0.0317728  
C612     C      0.850590000000     0.677240000000     0.507730000000     0.078967   
C613     C      0.829190000000     0.634170000000     0.504270000000     0.18381    
C614     C      0.852470000000     0.641620000000     0.358060000000    -0.0383189  
C615     C      0.847700000000     0.657980000000     0.301010000000     0.0491573  
C616     C      0.847580000000     0.658240000000     0.451870000000     0.0696446  
C617     C      0.717360000000     0.582230000000     0.579100000000    -0.139612   
C618     C      0.570260000000     0.549860000000     0.507600000000     0.0708401  
C619     C      0.572470000000     0.514140000000     0.499720000000     0.0718852  
C620     C      0.594000000000     0.562040000000     0.520440000000    -0.0927897  
C621     C      0.638920000000     0.577450000000     0.566140000000    -0.0377182  
C622     C      0.662470000000     0.588220000000     0.579710000000    -0.0318929  
C623     C      0.632470000000     0.562340000000     0.536650000000    -0.00546544 
C624     C      0.596190000000     0.525760000000     0.512250000000    -0.0933426  
C625     C      0.680040000000     0.584090000000     0.564050000000    -0.015366   
C626     C      0.717460000000     0.619370000000     0.588980000000    -0.105425   
C627     C      0.673640000000     0.569340000000     0.534180000000    -0.0318486  
C628     C      0.741600000000     0.630020000000     0.599520000000     0.0765299  
C629     C      0.742050000000     0.593500000000     0.588150000000     0.181452   
C630     C      0.650170000000     0.558590000000     0.520700000000    -0.0380154  
C631     C      0.607260000000     0.549960000000     0.522940000000     0.048273   
C632     C      0.705100000000     0.595270000000     0.578260000000     0.0692693  
C633     C      0.048920000000     0.752040000000     0.756640000000    -0.141159   
C634     C      0.908230000000     0.715060000000     0.654820000000     0.0716883  
C635     C      0.907600000000     0.677850000000     0.662430000000     0.0708526  
C636     C      0.932040000000     0.727830000000     0.667070000000    -0.092687   
C637     C      0.975380000000     0.748580000000     0.715320000000    -0.039263   
C638     C      0.998390000000     0.760650000000     0.730490000000    -0.0260753  
C639     C      0.968640000000     0.728580000000     0.693210000000    -0.00498594 
C640     C      0.931370000000     0.690050000000     0.675020000000    -0.0927517  
C641     C      0.015210000000     0.752960000000     0.724140000000    -0.0186731  
C642     C      0.052630000000     0.790580000000     0.743550000000    -0.106776   
C643     C      0.008590000000     0.733060000000     0.701960000000    -0.0335467  
C644     C      0.075210000000     0.801930000000     0.759870000000     0.0778491  
C645     C      0.071200000000     0.763790000000     0.774500000000     0.183929   
C646     C      0.985600000000     0.721060000000     0.686580000000    -0.035728   
C647     C      0.943830000000     0.715350000000     0.677930000000     0.0481568  
C648     C      0.039400000000     0.765380000000     0.741190000000     0.0705767  
Cu1      Cu     0.825050000000     0.673140000000     0.624700000000     0.843922   
Cu2      Cu     0.824770000000     0.634490000000     0.630130000000     0.840768   
Cu3      Cu     0.153660000000     0.844950000000     0.807420000000     0.839105   
Cu4      Cu     0.156350000000     0.807800000000     0.803900000000     0.844392   
Cu5      Cu     0.492500000000     0.010730000000     0.959370000000     0.847704   
Cu6      Cu     0.489670000000     0.970960000000     0.966510000000     0.842862   
Cu7      Cu     0.160970000000     0.335510000000     0.282410000000     0.847658   
Cu8      Cu     0.160330000000     0.296670000000     0.288120000000     0.842688   
Cu9      Cu     0.825020000000     0.171120000000     0.128060000000     0.843797   
Cu10     Cu     0.825600000000     0.132840000000     0.123090000000     0.845375   
Cu11     Cu     0.488050000000     0.508030000000     0.470110000000     0.838955   
Cu12     Cu     0.490580000000     0.470840000000     0.464820000000     0.844214   
Cu13     Cu     0.134520000000     0.304320000000     0.787440000000     0.843462   
Cu14     Cu     0.172490000000     0.343450000000     0.783830000000     0.84456    
Cu15     Cu     0.295850000000     0.133380000000     0.622690000000     0.844793   
Cu16     Cu     0.336090000000     0.170060000000     0.627340000000     0.844073   
Cu17     Cu     0.968570000000     0.469700000000     0.961250000000     0.848383   
Cu18     Cu     0.008360000000     0.506690000000     0.967940000000     0.840623   
Cu19     Cu     0.630090000000     0.797950000000     0.293400000000     0.843319   
Cu20     Cu     0.669900000000     0.834790000000     0.300330000000     0.84509    
Cu21     Cu     0.804920000000     0.637180000000     0.130590000000     0.847174   
Cu22     Cu     0.841730000000     0.677080000000     0.123810000000     0.844803   
Cu23     Cu     0.464160000000     0.963480000000     0.465040000000     0.840664   
Cu24     Cu     0.501760000000     0.003030000000     0.461740000000     0.853938   
Cu25     Cu     0.335830000000     0.157750000000     0.128040000000     0.842933   
Cu26     Cu     0.295760000000     0.154470000000     0.122160000000     0.845235   
Cu27     Cu     0.502120000000     0.490520000000     0.964470000000     0.841241   
Cu28     Cu     0.464650000000     0.492560000000     0.969750000000     0.842027   
Cu29     Cu     0.169230000000     0.825210000000     0.302590000000     0.845801   
Cu30     Cu     0.132410000000     0.828410000000     0.308790000000     0.843406   
Cu31     Cu     0.005010000000     0.492980000000     0.467390000000     0.837793   
Cu32     Cu     0.965230000000     0.490480000000     0.462690000000     0.848205   
Cu33     Cu     0.834950000000     0.155570000000     0.621450000000     0.845997   
Cu34     Cu     0.797200000000     0.156880000000     0.628450000000     0.840013   
Cu35     Cu     0.671230000000     0.825620000000     0.799550000000     0.842522   
Cu36     Cu     0.631550000000     0.823310000000     0.794600000000     0.844223   
H1       H      0.746520000000     0.083970000000     0.660770000000     0.0252771  
H2       H      0.717860000000     0.894840000000     0.755790000000     0.0231053  
H3       H      0.710040000000     0.001320000000     0.667090000000     0.0374628  
H4       H      0.755590000000     0.977270000000     0.747210000000     0.0357129  
H5       H      0.738170000000     0.934570000000     0.730100000000     0.0550657  
H6       H      0.775870000000     0.017690000000     0.721790000000     0.0375118  
H7       H      0.676680000000     0.942820000000     0.752530000000     0.0645816  
H8       H      0.725910000000     0.042910000000     0.682710000000     0.0519075  
H9       H      0.791310000000     0.039520000000     0.668230000000     0.0518548  
H10      H      0.689680000000     0.960950000000     0.693060000000     0.0365188  
H11      H      0.811630000000     0.080910000000     0.647320000000     0.0248698  
H12      H      0.645510000000     0.913700000000     0.787320000000     0.086908   
H13      H      0.646710000000     0.889300000000     0.806720000000     0.104911   
H14      H      0.916220000000     0.417350000000     0.495060000000     0.0249287  
H15      H      0.886050000000     0.230320000000     0.602230000000     0.0241527  
H16      H      0.887780000000     0.336330000000     0.497440000000     0.0376495  
H17      H      0.919670000000     0.313630000000     0.600200000000     0.0360759  
H18      H      0.908750000000     0.271950000000     0.583750000000     0.0551925  
H19      H      0.941480000000     0.355300000000     0.578460000000     0.038077   
H20      H      0.842470000000     0.272800000000     0.568180000000     0.0641595  
H21      H      0.895940000000     0.376240000000     0.516690000000     0.0518901  
H22      H      0.965050000000     0.379850000000     0.527410000000     0.052326   
H23      H      0.866190000000     0.294900000000     0.518860000000     0.0353904  
H24      H      0.984970000000     0.421270000000     0.505960000000     0.0255252  
H25      H      0.805920000000     0.236970000000     0.571090000000     0.0850641  
H26      H      0.803320000000     0.208540000000     0.576050000000     0.100981   
H27      H      0.143700000000     0.750910000000     0.330630000000     0.0237191  
H28      H      0.987550000000     0.565150000000     0.443010000000     0.0254306  
H29      H      0.106760000000     0.687510000000     0.404870000000     0.0372701  
H30      H      0.021120000000     0.632160000000     0.371760000000     0.03595    
H31      H      0.006530000000     0.607240000000     0.426210000000     0.0545803  
H32      H      0.041570000000     0.673890000000     0.350770000000     0.0372898  
H33      H      0.070490000000     0.605610000000     0.395630000000     0.0644649  
H34      H      0.122500000000     0.709720000000     0.351860000000     0.0511705  
H35      H      0.058560000000     0.715550000000     0.367760000000     0.051812   
H36      H      0.086400000000     0.645710000000     0.425240000000     0.0358252  
H37      H      0.080140000000     0.756600000000     0.345380000000     0.024924   
H38      H      0.069320000000     0.568430000000     0.393570000000     0.0862186  
H39      H      0.042900000000     0.540640000000     0.401580000000     0.104875   
H40      H      0.581960000000     0.748750000000     0.820870000000     0.0247827  
H41      H      0.553280000000     0.565010000000     0.940140000000     0.0234178  
H42      H      0.554840000000     0.667150000000     0.823340000000     0.0377125  
H43      H      0.584340000000     0.646910000000     0.931070000000     0.0360461  
H44      H      0.575430000000     0.606000000000     0.918560000000     0.0552201  
H45      H      0.605950000000     0.688260000000     0.908390000000     0.0381767  
H46      H      0.508350000000     0.602780000000     0.891920000000     0.0643087  
H47      H      0.561550000000     0.707390000000     0.841830000000     0.0519168  
H48      H      0.630790000000     0.711940000000     0.856690000000     0.0524334  
H49      H      0.533560000000     0.625830000000     0.845420000000     0.035355   
H50      H      0.650790000000     0.753430000000     0.835620000000     0.0253986  
H51      H      0.472680000000     0.565480000000     0.893400000000     0.0863924  
H52      H      0.471830000000     0.538170000000     0.903390000000     0.104661   
H53      H      0.221460000000     0.896520000000     0.265530000000     0.0253771  
H54      H      0.250100000000     0.084690000000     0.165540000000     0.0233001  
H55      H      0.241820000000     0.958640000000     0.189440000000     0.0379799  
H56      H      0.233570000000     0.024870000000     0.243390000000     0.036016   
H57      H      0.230680000000     0.044970000000     0.191290000000     0.0549611  
H58      H      0.213310000000     0.984740000000     0.270090000000     0.0378509  
H59      H      0.293830000000     0.039200000000     0.170190000000     0.0647934  
H60      H      0.243230000000     0.937350000000     0.242400000000     0.0523059  
H61      H      0.179580000000     0.943810000000     0.256950000000     0.0518981  
H62      H      0.261820000000     0.998610000000     0.162500000000     0.0354438  
H63      H      0.158340000000     0.903030000000     0.280280000000     0.0248603  
H64      H      0.324120000000     0.068320000000     0.134310000000     0.0873087  
H65      H      0.322100000000     0.092260000000     0.114820000000     0.105429   
H66      H      0.384470000000     0.232590000000     0.103400000000     0.0236063  
H67      H      0.413250000000     0.418070000000     0.990860000000     0.0233674  
H68      H      0.411350000000     0.296450000000     0.030150000000     0.0373626  
H69      H      0.380430000000     0.351410000000     0.062550000000     0.0363316  
H70      H      0.390600000000     0.376110000000     0.008180000000     0.0554688  
H71      H      0.359220000000     0.309630000000     0.083290000000     0.0376518  
H72      H      0.456590000000     0.378600000000     0.038970000000     0.0646358  
H73      H      0.404500000000     0.273980000000     0.083030000000     0.0512019  
H74      H      0.334800000000     0.268020000000     0.065630000000     0.0521039  
H75      H      0.432710000000     0.338300000000     0.010000000000     0.0358768  
H76      H      0.315250000000     0.226730000000     0.087160000000     0.025195   
H77      H      0.492400000000     0.415960000000     0.040420000000     0.0864314  
H78      H      0.493460000000     0.443570000000     0.031920000000     0.105451   
H79      H      0.684480000000     0.813820000000     0.692400000000     0.0247559  
H80      H      0.613050000000     0.779410000000     0.400750000000     0.0230812  
H81      H      0.671090000000     0.782960000000     0.581790000000     0.0370721  
H82      H      0.624640000000     0.811040000000     0.510880000000     0.0370965  
H83      H      0.611050000000     0.776430000000     0.463710000000     0.0557867  
H84      H      0.624030000000     0.813590000000     0.574160000000     0.0375647  
H85      H      0.688730000000     0.814300000000     0.468980000000     0.0655222  
H86      H      0.684460000000     0.808620000000     0.629880000000     0.0514107  
H87      H      0.610130000000     0.792580000000     0.626030000000     0.0515352  
H88      H      0.672560000000     0.781700000000     0.518170000000     0.0360736  
H89      H      0.611310000000     0.799300000000     0.688180000000     0.0249537  
H90      H      0.710900000000     0.822660000000     0.416560000000     0.0874259  
H91      H      0.697070000000     0.813860000000     0.375110000000     0.104468   
H92      H      0.684630000000     0.863620000000     0.195710000000     0.0250043  
H93      H      0.616040000000     0.823620000000     0.902950000000     0.022209   
H94      H      0.684580000000     0.841520000000     0.081060000000     0.0384569  
H95      H      0.620800000000     0.847920000000     0.015610000000     0.0349217  
H96      H      0.614980000000     0.825540000000     0.965490000000     0.0544478  
H97      H      0.618900000000     0.845330000000     0.079200000000     0.0380008  
H98      H      0.692880000000     0.866180000000     0.968000000000     0.0641807  
H99      H      0.686390000000     0.870170000000     0.133020000000     0.0525482  
H100     H      0.613360000000     0.810600000000     0.123570000000     0.0523774  
H101     H      0.685950000000     0.842660000000     0.017570000000     0.0357555  
H102     H      0.612230000000     0.804080000000     0.186200000000     0.0238434  
H103     H      0.714130000000     0.877950000000     0.915110000000     0.087145   
H104     H      0.699660000000     0.872250000000     0.874110000000     0.104257   
H105     H      0.751240000000     0.657100000000     0.157390000000     0.0249628  
H106     H      0.718100000000     0.808200000000     0.280090000000     0.02218    
H107     H      0.722140000000     0.692330000000     0.229360000000     0.0373987  
H108     H      0.747350000000     0.777030000000     0.197000000000     0.0365259  
H109     H      0.740060000000     0.788770000000     0.260310000000     0.0554429  
H110     H      0.768780000000     0.757940000000     0.172000000000     0.0371922  
H111     H      0.674150000000     0.728830000000     0.221980000000     0.0654926  
H112     H      0.729110000000     0.675940000000     0.179410000000     0.0516396  
H113     H      0.795880000000     0.744530000000     0.183350000000     0.0514982  
H114     H      0.699980000000     0.711260000000     0.252710000000     0.0366646  
H115     H      0.817130000000     0.725330000000     0.159470000000     0.0248747  
H116     H      0.639250000000     0.731980000000     0.219930000000     0.0869856  
H117     H      0.639000000000     0.758670000000     0.229910000000     0.106294   
H118     H      0.649230000000     0.883620000000     0.347570000000     0.0251753  
H119     H      0.543250000000     0.979180000000     0.401620000000     0.0223135  
H120     H      0.610970000000     0.926690000000     0.358970000000     0.0372777  
H121     H      0.525840000000     0.877820000000     0.398410000000     0.0352982  
H122     H      0.563480000000     0.959320000000     0.377150000000     0.0549717  
H123     H      0.546640000000     0.857410000000     0.377400000000     0.0367675  
H124     H      0.522340000000     0.898200000000     0.444730000000     0.0642351  
H125     H      0.629270000000     0.904550000000     0.369830000000     0.0517624  
H126     H      0.561090000000     0.846850000000     0.330660000000     0.0513988  
H127     H      0.591110000000     0.946970000000     0.384090000000     0.0355532  
H128     H      0.581430000000     0.825650000000     0.311360000000     0.0244966  
H129     H      0.495870000000     0.899880000000     0.485260000000     0.0874848  
H130     H      0.493550000000     0.925990000000     0.492060000000     0.104981   
H131     H      0.023940000000     0.533600000000     0.861990000000     0.0246371  
H132     H      0.951450000000     0.493960000000     0.570960000000     0.0226638  
H133     H      0.022490000000     0.511860000000     0.746490000000     0.0384024  
H134     H      0.958020000000     0.518790000000     0.683910000000     0.0353509  
H135     H      0.951330000000     0.496410000000     0.633530000000     0.0548886  
H136     H      0.956990000000     0.516030000000     0.747490000000     0.0381942  
H137     H      0.029260000000     0.536800000000     0.633640000000     0.064418   
H138     H      0.025220000000     0.540090000000     0.799290000000     0.0523915  
H139     H      0.951710000000     0.481270000000     0.791070000000     0.0530246  
H140     H      0.022990000000     0.513210000000     0.682990000000     0.0357821  
H141     H      0.951050000000     0.474820000000     0.853640000000     0.0249739  
H142     H      0.049700000000     0.548100000000     0.580020000000     0.0871432  
H143     H      0.034570000000     0.541920000000     0.539480000000     0.104969   
H144     H      0.017360000000     0.479250000000     0.361350000000     0.0229465  
H145     H      0.950340000000     0.451930000000     0.068160000000     0.0228496  
H146     H      0.005390000000     0.451080000000     0.249230000000     0.034906   
H147     H      0.959810000000     0.481130000000     0.180280000000     0.0370169  
H148     H      0.947400000000     0.447870000000     0.130920000000     0.0561749  
H149     H      0.957920000000     0.481340000000     0.243680000000     0.0375238  
H150     H      0.024960000000     0.486790000000     0.138780000000     0.0653833  
H151     H      0.017880000000     0.475190000000     0.298750000000     0.0509325  
H152     H      0.943450000000     0.458810000000     0.294350000000     0.0517691  
H153     H      0.008150000000     0.452210000000     0.185630000000     0.034094   
H154     H      0.944090000000     0.464420000000     0.356800000000     0.0246903  
H155     H      0.048050000000     0.496570000000     0.087150000000     0.0870096  
H156     H      0.035030000000     0.488080000000     0.045230000000     0.104546   
H157     H      0.988150000000     0.558950000000     0.001250000000     0.0256165  
H158     H      0.828220000000     0.590950000000     0.087640000000     0.0234361  
H159     H      0.943340000000     0.597390000000     0.004040000000     0.0377268  
H160     H      0.872940000000     0.553480000000     0.083120000000     0.0358529  
H161     H      0.847980000000     0.570480000000     0.063760000000     0.055192   
H162     H      0.892970000000     0.532550000000     0.059690000000     0.0375004  
H163     H      0.917370000000     0.632600000000     0.085470000000     0.0651132  
H164     H      0.968440000000     0.580670000000     0.022030000000     0.0522362  
H165     H      0.898900000000     0.516630000000     0.005860000000     0.0517481  
H166     H      0.923320000000     0.618420000000     0.027820000000     0.036476   
H167     H      0.919140000000     0.495260000000     0.986010000000     0.024806   
H168     H      0.919050000000     0.664370000000     0.118260000000     0.0875719  
H169     H      0.893320000000     0.663350000000     0.136820000000     0.105853   
H170     H      0.351090000000     0.147620000000     0.021300000000     0.0239291  
H171     H      0.281330000000     0.114540000000     0.729470000000     0.0232068  
H172     H      0.340210000000     0.118950000000     0.909360000000     0.0366142  
H173     H      0.293350000000     0.146730000000     0.838830000000     0.0371388  
H174     H      0.280060000000     0.111820000000     0.792290000000     0.0557354  
H175     H      0.292080000000     0.148360000000     0.902130000000     0.0376328  
H176     H      0.357780000000     0.151360000000     0.795990000000     0.0651766  
H177     H      0.352300000000     0.143680000000     0.958650000000     0.0510546  
H178     H      0.277450000000     0.125770000000     0.952720000000     0.0514677  
H179     H      0.342320000000     0.118610000000     0.845670000000     0.0357207  
H180     H      0.277380000000     0.131230000000     0.015050000000     0.0248829  
H181     H      0.379480000000     0.159960000000     0.743040000000     0.0874923  
H182     H      0.365290000000     0.150640000000     0.701910000000     0.105092   
H183     H      0.348300000000     0.197920000000     0.522580000000     0.0229271  
H184     H      0.278920000000     0.153750000000     0.230460000000     0.0223221  
H185     H      0.347160000000     0.174090000000     0.409550000000     0.0377262  
H186     H      0.282510000000     0.178250000000     0.343030000000     0.0352565  
H187     H      0.277370000000     0.155690000000     0.293030000000     0.0545668  
H188     H      0.280770000000     0.176580000000     0.406710000000     0.037943   
H189     H      0.355180000000     0.197950000000     0.296510000000     0.0641264  
H190     H      0.349170000000     0.203220000000     0.459740000000     0.0516204  
H191     H      0.275910000000     0.143690000000     0.453260000000     0.0526995  
H192     H      0.348420000000     0.174420000000     0.346080000000     0.0357219  
H193     H      0.275650000000     0.138460000000     0.516150000000     0.0250304  
H194     H      0.376730000000     0.210150000000     0.243920000000     0.0871091  
H195     H      0.362500000000     0.204130000000     0.202720000000     0.104629   
H196     H      0.411140000000     0.987060000000     0.481020000000     0.0247312  
H197     H      0.324120000000     0.082720000000     0.616390000000     0.0203254  
H198     H      0.374230000000     0.019770000000     0.541970000000     0.0370304  
H199     H      0.418280000000     0.109350000000     0.544920000000     0.0347392  
H200     H      0.344510000000     0.061170000000     0.598780000000     0.054329   
H201     H      0.438440000000     0.089020000000     0.522420000000     0.0365038  
H202     H      0.391790000000     0.121350000000     0.533040000000     0.0640946  
H203     H      0.389460000000     0.007110000000     0.499800000000     0.0515049  
H204     H      0.457470000000     0.068640000000     0.532220000000     0.05117    
H205     H      0.352800000000     0.040330000000     0.559290000000     0.0352988  
H206     H      0.478420000000     0.049010000000     0.509780000000     0.0245546  
H207     H      0.386270000000     0.154750000000     0.529640000000     0.0869257  
H208     H      0.361980000000     0.155740000000     0.550000000000     0.104591   
H209     H      0.057450000000     0.482860000000     0.934790000000     0.0239187  
H210     H      0.085720000000     0.324940000000     0.828470000000     0.0231858  
H211     H      0.091130000000     0.435120000000     0.922180000000     0.0365326  
H212     H      0.046770000000     0.370100000000     0.835100000000     0.0358378  
H213     H      0.064850000000     0.343490000000     0.855270000000     0.0553259  
H214     H      0.026560000000     0.389940000000     0.861830000000     0.0371017  
H215     H      0.123570000000     0.413810000000     0.828490000000     0.0646337  
H216     H      0.077440000000     0.462270000000     0.911550000000     0.050827   
H217     H      0.009220000000     0.395070000000     0.912590000000     0.0508032  
H218     H      0.111530000000     0.415920000000     0.893980000000     0.035993   
H219     H      0.989540000000     0.416570000000     0.934220000000     0.0269128  
H220     H      0.153600000000     0.416530000000     0.790370000000     0.0860863  
H221     H      0.152650000000     0.391090000000     0.770880000000     0.104769   
H222     H      0.248310000000     0.159950000000     0.654550000000     0.0247262  
H223     H      0.223800000000     0.318640000000     0.770240000000     0.023392   
H224     H      0.223580000000     0.197480000000     0.731190000000     0.0371746  
H225     H      0.256440000000     0.283900000000     0.700180000000     0.0361166  
H226     H      0.246190000000     0.298570000000     0.754860000000     0.0554498  
H227     H      0.276590000000     0.262530000000     0.678490000000     0.037544   
H228     H      0.180230000000     0.236000000000     0.721980000000     0.064929   
H229     H      0.229400000000     0.181740000000     0.677770000000     0.0514979  
H230     H      0.300100000000     0.244160000000     0.694280000000     0.0520041  
H231     H      0.203210000000     0.218810000000     0.752230000000     0.0361832  
H232     H      0.318440000000     0.222090000000     0.669910000000     0.0253133  
H233     H      0.145010000000     0.238460000000     0.717930000000     0.0870062  
H234     H      0.144450000000     0.265390000000     0.725060000000     0.106424   
H235     H      0.479140000000     0.445340000000     0.571670000000     0.0240841  
H236     H      0.446900000000     0.488480000000     0.861270000000     0.0194575  
H237     H      0.499180000000     0.468210000000     0.686540000000     0.0385002  
H238     H      0.428420000000     0.463160000000     0.748300000000     0.0350203  
H239     H      0.444210000000     0.485650000000     0.798660000000     0.0537962  
H240     H      0.430030000000     0.465140000000     0.684660000000     0.0377944  
H241     H      0.480950000000     0.444440000000     0.799610000000     0.0643573  
H242     H      0.474020000000     0.439820000000     0.634500000000     0.0520309  
H243     H      0.458850000000     0.498470000000     0.639820000000     0.0524374  
H244     H      0.498430000000     0.467590000000     0.750040000000     0.035931   
H245     H      0.464510000000     0.503930000000     0.577100000000     0.0249441  
H246     H      0.489980000000     0.433300000000     0.853500000000     0.0876154  
H247     H      0.481300000000     0.439980000000     0.893870000000     0.105207   
H248     H      0.533430000000     0.512240000000     0.067410000000     0.0235888  
H249     H      0.495390000000     0.466990000000     0.354250000000     0.0237712  
H250     H      0.493870000000     0.539470000000     0.189950000000     0.0372731  
H251     H      0.523900000000     0.488390000000     0.243100000000     0.0354837  
H252     H      0.497230000000     0.471290000000     0.291800000000     0.0550207  
H253     H      0.521980000000     0.490520000000     0.179900000000     0.0370905  
H254     H      0.522160000000     0.547250000000     0.302570000000     0.0644487  
H255     H      0.539340000000     0.516140000000     0.130030000000     0.0511633  
H256     H      0.471490000000     0.515210000000     0.140980000000     0.0519594  
H257     H      0.494680000000     0.536380000000     0.253340000000     0.036064   
H258     H      0.466460000000     0.511990000000     0.078230000000     0.0254426  
H259     H      0.531840000000     0.564550000000     0.358420000000     0.0873227  
H260     H      0.530640000000     0.548160000000     0.396150000000     0.105318   
H261     H      0.865410000000     0.172880000000     0.725150000000     0.024995   
H262     H      0.831500000000     0.128720000000     0.013080000000     0.0235419  
H263     H      0.827580000000     0.199700000000     0.849330000000     0.0374573  
H264     H      0.859000000000     0.149370000000     0.901010000000     0.035807   
H265     H      0.832770000000     0.132590000000     0.950600000000     0.0552977  
H266     H      0.855650000000     0.150800000000     0.837900000000     0.0377282  
H267     H      0.858990000000     0.208870000000     0.960470000000     0.0648565  
H268     H      0.872170000000     0.176560000000     0.787590000000     0.0519101  
H269     H      0.803850000000     0.174210000000     0.801590000000     0.0521778  
H270     H      0.829920000000     0.197380000000     0.912660000000     0.0362684  
H271     H      0.797910000000     0.171160000000     0.738960000000     0.025206   
H272     H      0.869670000000     0.226540000000     0.016120000000     0.0874834  
H273     H      0.868380000000     0.210170000000     0.053950000000     0.105221   
H274     H      0.800480000000     0.167500000000     0.234370000000     0.0248533  
H275     H      0.819600000000     0.119920000000     0.521670000000     0.0226054  
H276     H      0.761730000000     0.126880000000     0.340360000000     0.0380494  
H277     H      0.829780000000     0.130060000000     0.407690000000     0.0359883  
H278     H      0.814170000000     0.111050000000     0.460290000000     0.0549021  
H279     H      0.830480000000     0.129170000000     0.344330000000     0.0388946  
H280     H      0.777900000000     0.152360000000     0.450440000000     0.0638552  
H281     H      0.793030000000     0.161290000000     0.296730000000     0.0527529  
H282     H      0.804560000000     0.100270000000     0.291770000000     0.0527628  
H283     H      0.760040000000     0.126250000000     0.404080000000     0.0351034  
H284     H      0.811400000000     0.106510000000     0.229260000000     0.0251017  
H285     H      0.774470000000     0.172310000000     0.498740000000     0.0854887  
H286     H      0.789140000000     0.174740000000     0.538510000000     0.101429   
H287     H      0.146640000000     0.281490000000     0.397830000000     0.0239504  
H288     H      0.179670000000     0.353370000000     0.674540000000     0.0226539  
H289     H      0.169080000000     0.310820000000     0.507650000000     0.0383176  
H290     H      0.108470000000     0.327460000000     0.562940000000     0.0353853  
H291     H      0.177700000000     0.350550000000     0.611840000000     0.0557071  
H292     H      0.108610000000     0.323320000000     0.499280000000     0.0374953  
H293     H      0.101100000000     0.301080000000     0.617360000000     0.0646602  
H294     H      0.141790000000     0.282190000000     0.460490000000     0.0520835  
H295     H      0.138000000000     0.347560000000     0.449870000000     0.0523023  
H296     H      0.168920000000     0.314910000000     0.570990000000     0.0364487  
H297     H      0.143010000000     0.346490000000     0.387190000000     0.0248147  
H298     H      0.081660000000     0.294540000000     0.671920000000     0.086377   
H299     H      0.097040000000     0.309230000000     0.710570000000     0.103977   
H300     H      0.181520000000     0.353580000000     0.174100000000     0.0246331  
H301     H      0.147090000000     0.281630000000     0.888840000000     0.0220987  
H302     H      0.214210000000     0.347540000000     0.064860000000     0.0381014  
H303     H      0.141800000000     0.282320000000     0.005380000000     0.0356689  
H304     H      0.154310000000     0.278140000000     0.949890000000     0.0549063  
H305     H      0.144770000000     0.281990000000     0.068710000000     0.0387209  
H306     H      0.190640000000     0.355680000000     0.959670000000     0.064421   
H307     H      0.185550000000     0.352720000000     0.111170000000     0.0526474  
H308     H      0.173410000000     0.280040000000     0.118600000000     0.0528661  
H309     H      0.212120000000     0.347330000000     0.001220000000     0.0354266  
H310     H      0.170020000000     0.281540000000     0.181630000000     0.0251953  
H311     H      0.191230000000     0.378820000000     0.912330000000     0.0871833  
H312     H      0.175180000000     0.366090000000     0.873460000000     0.106405   
H313     H      0.897880000000     0.153880000000     0.158210000000     0.025052   
H314     H      0.090520000000     0.312970000000     0.243280000000     0.0240527  
H315     H      0.979800000000     0.198970000000     0.165910000000     0.0366298  
H316     H      0.006700000000     0.268880000000     0.246020000000     0.0369249  
H317     H      0.049870000000     0.293480000000     0.220620000000     0.0553074  
H318     H      0.965400000000     0.248720000000     0.223710000000     0.0368901  
H319     H      0.039280000000     0.224390000000     0.252810000000     0.0646881  
H320     H      0.939040000000     0.173650000000     0.179590000000     0.05178    
H321     H      0.941220000000     0.242410000000     0.174720000000     0.0517816  
H322     H      0.020780000000     0.218610000000     0.189750000000     0.0371958  
H323     H      0.899600000000     0.221840000000     0.155080000000     0.0238055  
H324     H      0.068390000000     0.223150000000     0.288770000000     0.0865974  
H325     H      0.093770000000     0.249260000000     0.305100000000     0.105618   
H326     H      0.233820000000     0.320300000000     0.321730000000     0.0250383  
H327     H      0.418620000000     0.484510000000     0.424130000000     0.0238028  
H328     H      0.316460000000     0.368290000000     0.332930000000     0.0375079  
H329     H      0.336200000000     0.438010000000     0.410560000000     0.0359349  
H330     H      0.379430000000     0.464220000000     0.396380000000     0.0551904  
H331     H      0.296560000000     0.416660000000     0.382800000000     0.0376521  
H332     H      0.372220000000     0.395330000000     0.422050000000     0.0648891  
H333     H      0.274480000000     0.341690000000     0.345480000000     0.0517274  
H334     H      0.276310000000     0.409480000000     0.328010000000     0.0517703  
H335     H      0.356030000000     0.389500000000     0.361270000000     0.036501   
H336     H      0.235440000000     0.387540000000     0.305440000000     0.0250735  
H337     H      0.400790000000     0.394250000000     0.459450000000     0.0871541  
H338     H      0.424540000000     0.420340000000     0.478960000000     0.105243   
H339     H      0.531880000000     0.009870000000     0.564270000000     0.0247567  
H340     H      0.495180000000     0.017010000000     0.849160000000     0.0233967  
H341     H      0.522370000000     0.020010000000     0.676460000000     0.0376897  
H342     H      0.491590000000     0.945890000000     0.748920000000     0.0359432  
H343     H      0.496690000000     0.014100000000     0.786920000000     0.0556371  
H344     H      0.490110000000     0.942340000000     0.685360000000     0.0369816  
H345     H      0.520320000000     0.962020000000     0.798270000000     0.0644836  
H346     H      0.538390000000     0.010330000000     0.626480000000     0.0517817  
H347     H      0.467780000000     0.946810000000     0.637550000000     0.0519722  
H348     H      0.524880000000     0.023610000000     0.739600000000     0.0356705  
H349     H      0.462130000000     0.946400000000     0.574950000000     0.024092   
H350     H      0.530090000000     0.954480000000     0.854220000000     0.0855928  
H351     H      0.529580000000     0.970220000000     0.891680000000     0.100648   
H352     H      0.497520000000     0.026320000000     0.357700000000     0.0246836  
H353     H      0.458280000000     0.953830000000     0.070330000000     0.0224286  
H354     H      0.506230000000     0.015580000000     0.246490000000     0.0375399  
H355     H      0.430430000000     0.967610000000     0.178990000000     0.0362708  
H356     H      0.451510000000     0.953370000000     0.132630000000     0.0561018  
H357     H      0.428660000000     0.967420000000     0.242880000000     0.0372917  
H358     H      0.491520000000     0.031060000000     0.134110000000     0.0652614  
H359     H      0.494200000000     0.028790000000     0.295290000000     0.0517277  
H360     H      0.439260000000     0.953160000000     0.293310000000     0.0519327  
H361     H      0.507630000000     0.016400000000     0.183250000000     0.0364469  
H362     H      0.442160000000     0.951690000000     0.356250000000     0.0251781  
H363     H      0.512290000000     0.051970000000     0.084090000000     0.0866316  
H364     H      0.514360000000     0.037550000000     0.046300000000     0.105256   
H365     H      0.752730000000     0.083160000000     0.088080000000     0.0250141  
H366     H      0.563390000000     0.057570000000     0.998650000000     0.0206013  
H367     H      0.670150000000     0.048190000000     0.083630000000     0.0375587  
H368     H      0.646080000000     0.093760000000     0.003580000000     0.0357717  
H369     H      0.603840000000     0.077670000000     0.022210000000     0.0543773  
H370     H      0.687040000000     0.113530000000     0.027210000000     0.0375297  
H371     H      0.609700000000     0.014620000000     0.001290000000     0.0645765  
H372     H      0.711480000000     0.063040000000     0.066590000000     0.0518395  
H373     H      0.709650000000     0.129300000000     0.080150000000     0.051759   
H374     H      0.629230000000     0.028340000000     0.059530000000     0.0363527  
H375     H      0.751110000000     0.149070000000     0.100620000000     0.0251253  
H376     H      0.579220000000     0.983060000000     0.968610000000     0.086007   
H377     H      0.554590000000     0.984460000000     0.950370000000     0.100612   
H378     H      0.200250000000     0.844110000000     0.406200000000     0.0250296  
H379     H      0.164110000000     0.803570000000     0.694310000000     0.0236108  
H380     H      0.162910000000     0.874170000000     0.528080000000     0.0372926  
H381     H      0.193090000000     0.823780000000     0.583110000000     0.0356011  
H382     H      0.166760000000     0.807390000000     0.631860000000     0.0551695  
H383     H      0.190560000000     0.824720000000     0.519860000000     0.0375729  
H384     H      0.191170000000     0.883380000000     0.640800000000     0.0645703  
H385     H      0.206980000000     0.848780000000     0.468650000000     0.0518103  
H386     H      0.139780000000     0.849070000000     0.480670000000     0.0520581  
H387     H      0.164160000000     0.872130000000     0.591470000000     0.0360718  
H388     H      0.134010000000     0.845190000000     0.418150000000     0.0251401  
H389     H      0.199840000000     0.901050000000     0.696490000000     0.0873621  
H390     H      0.197910000000     0.884860000000     0.734840000000     0.105669   
H391     H      0.141700000000     0.781850000000     0.909830000000     0.0239974  
H392     H      0.115570000000     0.827980000000     0.200290000000     0.022591   
H393     H      0.163980000000     0.806310000000     0.022850000000     0.038256   
H394     H      0.095130000000     0.803390000000     0.087380000000     0.0350136  
H395     H      0.112240000000     0.825750000000     0.137670000000     0.0545745  
H396     H      0.095650000000     0.804990000000     0.023660000000     0.0376742  
H397     H      0.146870000000     0.782570000000     0.135670000000     0.0641933  
H398     H      0.137000000000     0.777130000000     0.972690000000     0.0519728  
H399     H      0.124280000000     0.837420000000     0.977020000000     0.0520436  
H400     H      0.164340000000     0.806050000000     0.086320000000     0.0356974  
H401     H      0.129510000000     0.842060000000     0.914090000000     0.0237175  
H402     H      0.155810000000     0.770390000000     0.188710000000     0.0871527  
H403     H      0.147780000000     0.776970000000     0.229650000000     0.104492   
H404     H      0.418000000000     0.990160000000     0.936100000000     0.0249165  
H405     H      0.231330000000     0.834940000000     0.824510000000     0.0237464  
H406     H      0.351300000000     0.953100000000     0.868190000000     0.0372185  
H407     H      0.293670000000     0.868770000000     0.904490000000     0.0363363  
H408     H      0.272970000000     0.855150000000     0.843280000000     0.0554663  
H409     H      0.334820000000     0.888790000000     0.927350000000     0.037019   
H410     H      0.266960000000     0.915880000000     0.877840000000     0.0649095  
H411     H      0.376370000000     0.970690000000     0.916470000000     0.0513773  
H412     H      0.374960000000     0.902260000000     0.913580000000     0.0514577  
H413     H      0.309640000000     0.933230000000     0.846880000000     0.0364424  
H414     H      0.416060000000     0.922080000000     0.934990000000     0.02507    
H415     H      0.228810000000     0.912500000000     0.879810000000     0.0865566  
H416     H      0.201880000000     0.885460000000     0.871100000000     0.105974   
H417     H      0.839000000000     0.692490000000     0.014900000000     0.0254314  
H418     H      0.796090000000     0.674940000000     0.726330000000     0.0228178  
H419     H      0.785440000000     0.616190000000     0.912460000000     0.0376165  
H420     H      0.809460000000     0.690240000000     0.842380000000     0.0360731  
H421     H      0.787270000000     0.674390000000     0.787830000000     0.0552023  
H422     H      0.808100000000     0.692280000000     0.905810000000     0.037531   
H423     H      0.819050000000     0.629910000000     0.807760000000     0.0652485  
H424     H      0.832720000000     0.691160000000     0.952560000000     0.0523376  
H425     H      0.767360000000     0.622050000000     0.964000000000     0.0518603  
H426     H      0.785740000000     0.613940000000     0.849070000000     0.0361626  
H427     H      0.774510000000     0.623660000000     0.026380000000     0.0248214  
H428     H      0.839500000000     0.622990000000     0.763010000000     0.0872685  
H429     H      0.844650000000     0.636970000000     0.721910000000     0.105676   
H430     H      0.811010000000     0.619990000000     0.238270000000     0.0247508  
H431     H      0.857670000000     0.694020000000     0.522300000000     0.0225506  
H432     H      0.853600000000     0.627340000000     0.344400000000     0.0379034  
H433     H      0.846840000000     0.691680000000     0.407320000000     0.03591    
H434     H      0.866190000000     0.696950000000     0.460680000000     0.0550387  
H435     H      0.847390000000     0.691680000000     0.343850000000     0.0387916  
H436     H      0.827110000000     0.619270000000     0.453200000000     0.0641123  
H437     H      0.818030000000     0.621010000000     0.300750000000     0.0526399  
H438     H      0.876360000000     0.694670000000     0.291470000000     0.0525942  
H439     H      0.854490000000     0.627920000000     0.408140000000     0.0352962  
H440     H      0.869350000000     0.693030000000     0.228920000000     0.0242604  
H441     H      0.807260000000     0.596310000000     0.501940000000     0.0854119  
H442     H      0.804470000000     0.608990000000     0.541080000000     0.101131   
H443     H      0.564650000000     0.495330000000     0.492060000000     0.0249497  
H444     H      0.750070000000     0.648730000000     0.607970000000     0.0242743  
H445     H      0.645950000000     0.547450000000     0.497550000000     0.0373696  
H446     H      0.666780000000     0.599390000000     0.602830000000     0.0360893  
H447     H      0.708720000000     0.630220000000     0.588560000000     0.055141   
H448     H      0.625640000000     0.580520000000     0.579230000000     0.0380244  
H449     H      0.708050000000     0.563460000000     0.570810000000     0.063967   
H450     H      0.605640000000     0.515620000000     0.514110000000     0.0517119  
H451     H      0.601970000000     0.580850000000     0.528050000000     0.0518395  
H452     H      0.686870000000     0.566280000000     0.520900000000     0.0353426  
H453     H      0.560620000000     0.559850000000     0.506170000000     0.0242055  
H454     H      0.743610000000     0.562360000000     0.574760000000     0.0848882  
H455     H      0.772080000000     0.587780000000     0.580820000000     0.101499   
H456     H      0.898540000000     0.658260000000     0.661260000000     0.0236549  
H457     H      0.085110000000     0.821570000000     0.759520000000     0.0237203  
H458     H      0.981210000000     0.705990000000     0.669290000000     0.0375441  
H459     H      0.002800000000     0.775680000000     0.747890000000     0.033198   
H460     H      0.045880000000     0.801590000000     0.732010000000     0.0551517  
H461     H      0.962680000000     0.754610000000     0.721610000000     0.0384037  
H462     H      0.038280000000     0.732430000000     0.756750000000     0.0647361  
H463     H      0.939600000000     0.679580000000     0.683390000000     0.0514834  
H464     H      0.941100000000     0.747410000000     0.668090000000     0.0519648  
H465     H      0.021270000000     0.726890000000     0.696260000000     0.0363702  
H466     H      0.899780000000     0.725490000000     0.647150000000     0.0251496  
H467     H      0.066810000000     0.730940000000     0.793640000000     0.0868607  
H468     H      0.090490000000     0.756750000000     0.813680000000     0.105423   
N1       N      0.685160000000     0.895140000000     0.768980000000    -0.211954   
N2       N      0.780690000000     0.085630000000     0.652770000000    -0.19367    
N3       N      0.653680000000     0.903000000000     0.788030000000    -0.218872   
N4       N      0.850820000000     0.226590000000     0.594850000000    -0.210749   
N5       N      0.952120000000     0.422410000000     0.498820000000    -0.193556   
N6       N      0.814400000000     0.227170000000     0.578200000000    -0.218383   
N7       N      0.017810000000     0.560640000000     0.429340000000    -0.211615   
N8       N      0.113570000000     0.756910000000     0.336610000000    -0.194088   
N9       N      0.051820000000     0.559420000000     0.403980000000    -0.218741   
N10      N      0.517960000000     0.559580000000     0.927900000000    -0.211519   
N11      N      0.617900000000     0.754240000000     0.826770000000    -0.193485   
N12      N      0.481650000000     0.557020000000     0.904110000000    -0.21852    
N13      N      0.283310000000     0.085390000000     0.152560000000    -0.211754   
N14      N      0.188210000000     0.896630000000     0.274360000000    -0.193649   
N15      N      0.315480000000     0.078590000000     0.133560000000    -0.218739   
N16      N      0.448220000000     0.423030000000     0.004550000000    -0.212136   
N17      N      0.348360000000     0.226480000000     0.096560000000    -0.193993   
N18      N      0.483740000000     0.424780000000     0.029870000000    -0.218998   
N19      N      0.651960000000     0.799310000000     0.398030000000    -0.21232    
N20      N      0.648080000000     0.807380000000     0.694880000000    -0.193572   
N21      N      0.695080000000     0.815960000000     0.401670000000    -0.21898    
N22      N      0.654850000000     0.842500000000     0.898870000000    -0.212823   
N23      N      0.648470000000     0.833120000000     0.195540000000    -0.193994   
N24      N      0.698050000000     0.868660000000     0.900820000000    -0.21912    
N25      N      0.683150000000     0.780350000000     0.261940000000    -0.211759   
N26      N      0.785850000000     0.689750000000     0.156970000000    -0.19407    
N27      N      0.648000000000     0.748890000000     0.232180000000    -0.21865    
N28      N      0.520240000000     0.950010000000     0.435910000000    -0.213035   
N29      N      0.616810000000     0.853000000000     0.328140000000    -0.194262   
N30      N      0.499910000000     0.917000000000     0.476370000000    -0.219483   
N31      N      0.990190000000     0.512570000000     0.565730000000    -0.212013   
N32      N      0.987530000000     0.503530000000     0.862420000000    -0.193107   
N33      N      0.033400000000     0.538680000000     0.566270000000    -0.219159   
N34      N      0.989280000000     0.472310000000     0.066640000000    -0.211753   
N35      N      0.980880000000     0.472670000000     0.363660000000    -0.193427   
N36      N      0.032470000000     0.489780000000     0.071710000000    -0.21916    
N37      N      0.861000000000     0.623950000000     0.100380000000    -0.212037   
N38      N      0.955160000000     0.525420000000     0.992420000000    -0.193955   
N39      N      0.900160000000     0.656060000000     0.118820000000    -0.218837   
N40      N      0.320200000000     0.135290000000     0.725770000000    -0.212281   
N41      N      0.314330000000     0.140200000000     0.022770000000    -0.194113   
N42      N      0.363490000000     0.152860000000     0.728490000000    -0.219016   
N43      N      0.317750000000     0.173480000000     0.226940000000    -0.212597   
N44      N      0.312090000000     0.167510000000     0.523970000000    -0.194117   
N45      N      0.360790000000     0.200530000000     0.229430000000    -0.219076   
N46      N      0.347070000000     0.114840000000     0.587210000000    -0.213778   
N47      N      0.446340000000     0.016600000000     0.493770000000    -0.194277   
N48      N      0.371990000000     0.146950000000     0.547520000000    -0.219763   
N49      N      0.117110000000     0.358380000000     0.812810000000    -0.212402   
N50      N      0.021950000000     0.451330000000     0.935830000000    -0.19358    
N51      N      0.146210000000     0.397740000000     0.790450000000    -0.218818   
N52      N      0.188940000000     0.289190000000     0.755120000000    -0.212035   
N53      N      0.284780000000     0.189340000000     0.660540000000    -0.193763   
N54      N      0.153720000000     0.255940000000     0.728400000000    -0.218875   
N55      N      0.466620000000     0.469460000000     0.866960000000    -0.212622   
N56      N      0.472550000000     0.475260000000     0.569750000000    -0.193623   
N57      N      0.483300000000     0.442970000000     0.867010000000    -0.219139   
N58      N      0.506950000000     0.504290000000     0.365310000000    -0.211408   
N59      N      0.499260000000     0.511290000000     0.068160000000    -0.19343    
N60      N      0.525840000000     0.547650000000     0.370030000000    -0.218777   
N61      N      0.843670000000     0.166220000000     0.023680000000    -0.212023   
N62      N      0.830970000000     0.171330000000     0.727410000000    -0.193621   
N63      N      0.863430000000     0.209650000000     0.027900000000    -0.218808   
N64      N      0.801890000000     0.141100000000     0.522300000000    -0.211936   
N65      N      0.806800000000     0.137680000000     0.227260000000    -0.193817   
N66      N      0.783610000000     0.166080000000     0.514540000000    -0.219389   
N67      N      0.141760000000     0.328350000000     0.682980000000    -0.213339   
N68      N      0.145570000000     0.314140000000     0.387910000000    -0.194464   
N69      N      0.098230000000     0.305000000000     0.684640000000    -0.219159   
N70      N      0.165060000000     0.320460000000     0.888470000000    -0.213076   
N71      N      0.175130000000     0.317520000000     0.182470000000    -0.194098   
N72      N      0.182030000000     0.363410000000     0.896690000000    -0.219428   
N73      N      0.089080000000     0.280270000000     0.261520000000    -0.211213   
N74      N      0.895570000000     0.186320000000     0.155310000000    -0.19399    
N75      N      0.079810000000     0.241890000000     0.286820000000    -0.218407   
N76      N      0.418740000000     0.451980000000     0.438860000000    -0.211731   
N77      N      0.231420000000     0.352260000000     0.312340000000    -0.193321   
N78      N      0.411190000000     0.413150000000     0.459740000000    -0.218608   
N79      N      0.506280000000     0.990890000000     0.860610000000    -0.212913   
N80      N      0.496300000000     0.978430000000     0.565100000000    -0.1949     
N81      N      0.524480000000     0.965750000000     0.865700000000    -0.218274   
N82      N      0.479210000000     0.992590000000     0.065970000000    -0.212906   
N83      N      0.470530000000     0.988680000000     0.361470000000    -0.194486   
N84      N      0.505530000000     0.035890000000     0.069860000000    -0.219229   
N85      N      0.562510000000     0.024180000000     0.986520000000    -0.212253   
N86      N      0.755090000000     0.117660000000     0.095690000000    -0.193673   
N87      N      0.568870000000     0.991620000000     0.968150000000    -0.218134   
N88      N      0.175160000000     0.840880000000     0.704380000000    -0.212      
N89      N      0.166440000000     0.843890000000     0.407540000000    -0.193689   
N90      N      0.193700000000     0.884220000000     0.708430000000    -0.21888    
N91      N      0.134290000000     0.807880000000     0.204480000000    -0.212579   
N92      N      0.136410000000     0.812590000000     0.907350000000    -0.194146   
N93      N      0.149700000000     0.780310000000     0.202870000000    -0.219086   
N94      N      0.224230000000     0.863180000000     0.840690000000    -0.211342   
N95      N      0.420190000000     0.957620000000     0.936880000000    -0.193522   
N96      N      0.220630000000     0.895280000000     0.868500000000    -0.218766   
N97      N      0.812600000000     0.652760000000     0.731020000000    -0.21222    
N98      N      0.807490000000     0.657990000000     0.025240000000    -0.193808   
N99      N      0.834800000000     0.632350000000     0.745090000000    -0.218833   
N100     N      0.837800000000     0.655140000000     0.523980000000    -0.212334   
N101     N      0.839430000000     0.656520000000     0.229040000000    -0.194189   
N102     N      0.813290000000     0.611850000000     0.517260000000    -0.219093   
N103     N      0.754070000000     0.617490000000     0.599420000000    -0.210357   
N104     N      0.559500000000     0.526010000000     0.497570000000    -0.193558   
N105     N      0.753460000000     0.580530000000     0.582310000000    -0.2185     
N106     N      0.085020000000     0.788890000000     0.774080000000    -0.211661   
N107     N      0.895940000000     0.690220000000     0.653020000000    -0.193698   
N108     N      0.077270000000     0.749830000000     0.794290000000    -0.218774   
O1       O      0.860830000000     0.689570000000     0.636860000000    -0.397934   
O2       O      0.789280000000     0.652920000000     0.612600000000    -0.399043   
O3       O      0.817100000000     0.669880000000     0.676570000000    -0.398842   
O4       O      0.833110000000     0.672690000000     0.573530000000    -0.399423   
O5       O      0.832020000000     0.637350000000     0.578190000000    -0.403098   
O6       O      0.817550000000     0.635330000000     0.681410000000    -0.401409   
O7       O      0.788840000000     0.618110000000     0.618820000000    -0.402781   
O8       O      0.860730000000     0.654660000000     0.641050000000    -0.399539   
O9       O      0.188870000000     0.861940000000     0.823010000000    -0.402586   
O10      O      0.118690000000     0.824300000000     0.791670000000    -0.398422   
O11      O      0.143200000000     0.835610000000     0.857850000000    -0.399911   
O12      O      0.164440000000     0.850760000000     0.756730000000    -0.399648   
O13      O      0.166860000000     0.817200000000     0.753560000000    -0.399267   
O14      O      0.145770000000     0.802070000000     0.854620000000    -0.401042   
O15      O      0.121160000000     0.790790000000     0.788330000000    -0.400625   
O16      O      0.191150000000     0.828340000000     0.820210000000    -0.400166   
O17      O      0.456460000000     0.992140000000     0.948440000000    -0.397201   
O18      O      0.528240000000     0.025440000000     0.970890000000    -0.403236   
O19      O      0.499880000000     0.008640000000     0.908530000000    -0.402994   
O20      O      0.485200000000     0.009130000000     0.010990000000    -0.404038   
O21      O      0.481970000000     0.972920000000     0.017450000000    -0.399513   
O22      O      0.497850000000     0.973000000000     0.915000000000    -0.403428   
O23      O      0.525570000000     0.989570000000     0.978110000000    -0.402497   
O24      O      0.454120000000     0.956220000000     0.953860000000    -0.397463   
O25      O      0.196650000000     0.351730000000     0.294730000000    -0.398871   
O26      O      0.125150000000     0.315570000000     0.270970000000    -0.400538   
O27      O      0.152720000000     0.332390000000     0.334010000000    -0.399028   
O28      O      0.169180000000     0.334830000000     0.231340000000    -0.398763   
O29      O      0.168300000000     0.299580000000     0.236510000000    -0.398606   
O30      O      0.152290000000     0.297360000000     0.339140000000    -0.401819   
O31      O      0.124520000000     0.280540000000     0.275830000000    -0.400057   
O32      O      0.196210000000     0.316700000000     0.300070000000    -0.396163   
O33      O      0.789710000000     0.151950000000     0.113460000000    -0.397753   
O34      O      0.860470000000     0.186620000000     0.142080000000    -0.399606   
O35      O      0.834900000000     0.176730000000     0.077030000000    -0.400554   
O36      O      0.815080000000     0.161730000000     0.178590000000    -0.397886   
O37      O      0.815870000000     0.127280000000     0.174190000000    -0.398019   
O38      O      0.835380000000     0.142190000000     0.072490000000    -0.399588   
O39      O      0.860890000000     0.151980000000     0.137840000000    -0.398447   
O40      O      0.790200000000     0.117360000000     0.108890000000    -0.397639   
O41      O      0.452740000000     0.487440000000     0.455550000000    -0.397455   
O42      O      0.523620000000     0.524910000000     0.484390000000    -0.397624   
O43      O      0.497820000000     0.514110000000     0.418990000000    -0.399413   
O44      O      0.478500000000     0.498410000000     0.520680000000    -0.397501   
O45      O      0.481570000000     0.465200000000     0.516300000000    -0.399205   
O46      O      0.499490000000     0.480220000000     0.413940000000    -0.397983   
O47      O      0.525860000000     0.491310000000     0.478600000000    -0.399412   
O48      O      0.455000000000     0.453830000000     0.451620000000    -0.401356   
O49      O      0.118200000000     0.323600000000     0.800210000000    -0.403546   
O50      O      0.154400000000     0.288820000000     0.773890000000    -0.401853   
O51      O      0.142870000000     0.303720000000     0.838560000000    -0.398893   
O52      O      0.129890000000     0.308800000000     0.736040000000    -0.403844   
O53      O      0.164250000000     0.344080000000     0.732920000000    -0.404485   
O54      O      0.177020000000     0.339260000000     0.835140000000    -0.402586   
O55      O      0.188750000000     0.324060000000     0.770530000000    -0.398646   
O56      O      0.152430000000     0.358910000000     0.797270000000    -0.404621   
O57      O      0.313600000000     0.115960000000     0.606740000000    -0.399136   
O58      O      0.282080000000     0.154330000000     0.639240000000    -0.398079   
O59      O      0.295350000000     0.143660000000     0.572580000000    -0.39788    
O60      O      0.300220000000     0.126720000000     0.673130000000    -0.40072    
O61      O      0.337010000000     0.159140000000     0.677010000000    -0.399267   
O62      O      0.331350000000     0.177190000000     0.577230000000    -0.401078   
O63      O      0.318500000000     0.187170000000     0.644930000000    -0.397885   
O64      O      0.349750000000     0.149600000000     0.608820000000    -0.404357   
O65      O      0.987320000000     0.452670000000     0.948480000000    -0.396026   
O66      O      0.953790000000     0.490310000000     0.974660000000    -0.399116   
O67      O      0.969720000000     0.479630000000     0.910600000000    -0.398708   
O68      O      0.971140000000     0.463410000000     0.012580000000    -0.400763   
O69      O      0.007270000000     0.496500000000     0.018570000000    -0.4014     
O70      O      0.005660000000     0.513060000000     0.916570000000    -0.398997   
O71      O      0.989710000000     0.523660000000     0.981170000000    -0.396689   
O72      O      0.023170000000     0.486270000000     0.953950000000    -0.401312   
O73      O      0.615380000000     0.818360000000     0.308090000000    -0.399001   
O74      O      0.648710000000     0.781160000000     0.278910000000    -0.401814   
O75      O      0.633090000000     0.791040000000     0.344430000000    -0.398793   
O76      O      0.630870000000     0.808520000000     0.243170000000    -0.400635   
O77      O      0.666510000000     0.842220000000     0.249720000000    -0.397923   
O78      O      0.669610000000     0.823640000000     0.350110000000    -0.400213   
O79      O      0.684470000000     0.814710000000     0.283490000000    -0.403017   
O80      O      0.651360000000     0.851350000000     0.316370000000    -0.397272   
O81      O      0.787660000000     0.655530000000     0.143700000000    -0.39897    
O82      O      0.825690000000     0.622680000000     0.116980000000    -0.401573   
O83      O      0.815180000000     0.638460000000     0.181180000000    -0.398242   
O84      O      0.798320000000     0.639780000000     0.079310000000    -0.398084   
O85      O      0.831560000000     0.675840000000     0.073280000000    -0.39832    
O86      O      0.848350000000     0.674580000000     0.174970000000    -0.401452   
O87      O      0.858930000000     0.658590000000     0.110640000000    -0.400452   
O88      O      0.820980000000     0.691590000000     0.138040000000    -0.398146   
O89      O      0.484920000000     0.948590000000     0.452740000000    -0.400348   
O90      O      0.447130000000     0.982310000000     0.477250000000    -0.39665    
O91      O      0.459870000000     0.967710000000     0.413410000000    -0.397405   
O92      O      0.472280000000     0.963140000000     0.516290000000    -0.400302   
O93      O      0.507410000000     0.997700000000     0.512090000000    -0.402028   
O94      O      0.492460000000     0.004560000000     0.411680000000    -0.401706   
O95      O      0.481640000000     0.017670000000     0.478140000000    -0.39998    
O96      O      0.518290000000     0.984490000000     0.445990000000    -0.401229   
O97      O      0.317600000000     0.122080000000     0.141100000000    -0.400138   
O98      O      0.350140000000     0.192990000000     0.114450000000    -0.401808   
O99      O      0.335030000000     0.166700000000     0.178700000000    -0.400012   
O100     O      0.332910000000     0.148890000000     0.076580000000    -0.39985    
O101     O      0.296560000000     0.145610000000     0.071510000000    -0.398917   
O102     O      0.298740000000     0.163490000000     0.173500000000    -0.399894   
O103     O      0.314010000000     0.190170000000     0.108830000000    -0.397293   
O104     O      0.281490000000     0.119170000000     0.135810000000    -0.399977   
O105     O      0.482580000000     0.456140000000     0.982810000000    -0.403423   
O106     O      0.517960000000     0.525140000000     0.946390000000    -0.397789   
O107     O      0.509330000000     0.502640000000     0.014520000000    -0.399738   
O108     O      0.491190000000     0.478280000000     0.915140000000    -0.399649   
O109     O      0.457820000000     0.481080000000     0.919310000000    -0.401168   
O110     O      0.475100000000     0.503780000000     0.019690000000    -0.396207   
O111     O      0.484270000000     0.527120000000     0.952230000000    -0.400773   
O112     O      0.448610000000     0.457750000000     0.986700000000    -0.400053   
O113     O      0.186290000000     0.860490000000     0.287660000000    -0.397914   
O114     O      0.148660000000     0.790260000000     0.317950000000    -0.401467   
O115     O      0.158670000000     0.815050000000     0.252480000000    -0.400608   
O116     O      0.176080000000     0.835400000000     0.353470000000    -0.397832   
O117     O      0.142480000000     0.837650000000     0.359290000000    -0.397974   
O118     O      0.125890000000     0.818800000000     0.257640000000    -0.399394   
O119     O      0.115220000000     0.792900000000     0.322940000000    -0.397585   
O120     O      0.153190000000     0.863570000000     0.294130000000    -0.397834   
O121     O      0.019500000000     0.527660000000     0.450640000000    -0.40306    
O122     O      0.986560000000     0.457890000000     0.483680000000    -0.394729   
O123     O      0.000410000000     0.482060000000     0.416760000000    -0.402202   
O124     O      0.005980000000     0.504110000000     0.517310000000    -0.401427   
O125     O      0.969890000000     0.501510000000     0.513270000000    -0.400062   
O126     O      0.964370000000     0.479580000000     0.412630000000    -0.3987     
O127     O      0.950680000000     0.455760000000     0.479210000000    -0.399231   
O128     O      0.983670000000     0.525500000000     0.446360000000    -0.398165   
O129     O      0.850730000000     0.191150000000     0.607860000000    -0.398495   
O130     O      0.815350000000     0.120090000000     0.635330000000    -0.397391   
O131     O      0.825030000000     0.146490000000     0.571000000000    -0.400791   
O132     O      0.841300000000     0.164710000000     0.672670000000    -0.398523   
O133     O      0.806750000000     0.165040000000     0.679400000000    -0.396339   
O134     O      0.791400000000     0.148640000000     0.576670000000    -0.401684   
O135     O      0.781090000000     0.121160000000     0.640550000000    -0.397863   
O136     O      0.816910000000     0.192470000000     0.615760000000    -0.403848   
O137     O      0.652500000000     0.790070000000     0.813480000000    -0.396463   
O138     O      0.686090000000     0.860870000000     0.785520000000    -0.402698   
O139     O      0.671330000000     0.835110000000     0.850200000000    -0.399968   
O140     O      0.667420000000     0.816270000000     0.748180000000    -0.396795   
O141     O      0.631460000000     0.813980000000     0.743960000000    -0.397979   
O142     O      0.635330000000     0.832680000000     0.845820000000    -0.402456   
O143     O      0.650380000000     0.858910000000     0.780970000000    -0.400591   
O144     O      0.616680000000     0.788040000000     0.808730000000    -0.398413   


