data_structure

_audit_creation_method RASPA-1.0
_audit_creation_date 2023-5-19
_audit_author_name 'Poobodin Mano'

_cell_length_a    39.0085
_cell_length_b    38.9913
_cell_length_c    38.9932
_cell_angle_alpha 90
_cell_angle_beta  90
_cell_angle_gamma 90
_cell_volume      59308.4

_symmetry_cell_setting          triclinic
_symmetry_space_group_name_Hall 'P 1'
_symmetry_space_group_name_H-M  'P 1'
_symmetry_Int_Tables_number     1

_symmetry_equiv_pos_as_xyz 'x,y,z'

loop_
_atom_site_label
_atom_site_type_symbol
_atom_site_fract_x
_atom_site_fract_y
_atom_site_fract_z
_atom_site_charge
C1       C      0.001020000000     0.064670000000     0.499840000000     0.416326   
C2       C      0.002920000000     0.927620000000     0.502220000000     0.416871   
C3       C      0.933140000000     0.994400000000     0.497740000000     0.415844   
C4       C      0.070050000000     0.997100000000     0.504190000000     0.416713   
C5       C      0.991430000000     0.427440000000     0.491470000000     0.40846    
C6       C      0.993070000000     0.564260000000     0.495060000000     0.407365   
C7       C      0.991680000000     0.497610000000     0.424860000000     0.407165   
C8       C      0.992690000000     0.493260000000     0.561670000000     0.415962   
C9       C      0.570120000000     0.999490000000     0.495780000000     0.407935   
C10      C      0.433340000000     0.000850000000     0.499860000000     0.406839   
C11      C      0.499610000000     0.999960000000     0.429340000000     0.40628    
C12      C      0.504400000000     0.000230000000     0.566260000000     0.415038   
C13      C      0.492020000000     0.996550000000     0.066180000000     0.414661   
C14      C      0.494410000000     0.001530000000     0.929280000000     0.406353   
C15      C      0.492490000000     0.067700000000     0.999860000000     0.407203   
C16      C      0.493980000000     0.930920000000     0.995620000000     0.407979   
C17      C      0.997280000000     0.489770000000     0.061730000000     0.416017   
C18      C      0.002950000000     0.491690000000     0.924910000000     0.40943    
C19      C      0.068540000000     0.490830000000     0.996770000000     0.415726   
C20      C      0.931760000000     0.490650000000     0.989400000000     0.416515   
C21      C      0.500010000000     0.430470000000     0.993160000000     0.415275   
C22      C      0.501460000000     0.567460000000     0.990780000000     0.415663   
C23      C      0.431700000000     0.499620000000     0.993020000000     0.407646   
C24      C      0.568450000000     0.498280000000     0.991130000000     0.410495   
C25      C      0.841800000000     0.462000000000     0.981750000000    -0.117071   
C26      C      0.621790000000     0.497230000000     0.020860000000     0.0771012  
C27      C      0.621070000000     0.497940000000     0.960080000000     0.0797375  
C28      C      0.657570000000     0.496550000000     0.020900000000    -0.091236   
C29      C      0.732830000000     0.514520000000     0.013530000000    -0.0340934  
C30      C      0.768640000000     0.513480000000     0.013240000000    -0.0304988  
C31      C      0.713720000000     0.495720000000     0.989400000000    -0.00340612 
C32      C      0.656850000000     0.497400000000     0.959200000000    -0.0896809  
C33      C      0.786220000000     0.493670000000     0.988780000000    -0.00897409 
C34      C      0.843540000000     0.522300000000     0.993990000000    -0.0994232  
C35      C      0.767100000000     0.474960000000     0.964580000000    -0.0299023  
C36      C      0.879250000000     0.520920000000     0.993370000000     0.0807163  
C37      C      0.877750000000     0.461310000000     0.980500000000     0.170538   
C38      C      0.731310000000     0.475930000000     0.964930000000    -0.0332819  
C39      C      0.675600000000     0.496620000000     0.989840000000     0.0525577  
C40      C      0.824330000000     0.492590000000     0.988420000000     0.0666878  
C41      C      0.158930000000     0.462600000000     0.001260000000    -0.117412   
C42      C      0.378260000000     0.499150000000     0.963400000000     0.076094   
C43      C      0.379160000000     0.500060000000     0.024180000000     0.0752017  
C44      C      0.342460000000     0.498740000000     0.963470000000    -0.0909921  
C45      C      0.267170000000     0.517240000000     0.971790000000    -0.0343895  
C46      C      0.231360000000     0.516030000000     0.972280000000    -0.0308994  
C47      C      0.286490000000     0.497770000000     0.995200000000    -0.00417229 
C48      C      0.343390000000     0.499620000000     0.025180000000    -0.0920116  
C49      C      0.214070000000     0.495230000000     0.996120000000    -0.00928038 
C50      C      0.156480000000     0.523550000000     0.993100000000    -0.0996754  
C51      C      0.233400000000     0.475830000000     0.019560000000    -0.0306152  
C52      C      0.120780000000     0.521760000000     0.994020000000     0.0802471  
C53      C      0.123010000000     0.461420000000     0.002640000000     0.170506   
C54      C      0.269170000000     0.477100000000     0.019120000000    -0.03364    
C55      C      0.324570000000     0.498840000000     0.994610000000     0.0516328  
C56      C      0.176010000000     0.493760000000     0.996580000000     0.0663567  
C57      C      0.505760000000     0.657130000000     0.960460000000    -0.117197   
C58      C      0.464310000000     0.877500000000     0.993830000000     0.0765599  
C59      C      0.525060000000     0.878330000000     0.995080000000     0.0755987  
C60      C      0.464370000000     0.841670000000     0.993080000000    -0.0907623  
C61      C      0.472260000000     0.766340000000     0.011530000000    -0.0344273  
C62      C      0.473110000000     0.730500000000     0.010920000000    -0.0309124  
C63      C      0.496110000000     0.785590000000     0.992520000000    -0.00408585 
C64      C      0.526030000000     0.842550000000     0.994400000000    -0.0917087  
C65      C      0.497810000000     0.713060000000     0.991280000000    -0.00934965 
C66      C      0.494310000000     0.656090000000     0.020930000000    -0.0995108  
C67      C      0.521610000000     0.732320000000     0.972240000000    -0.030834   
C68      C      0.496060000000     0.620380000000     0.020180000000     0.0798258  
C69      C      0.508110000000     0.621220000000     0.960380000000     0.16846    
C70      C      0.520730000000     0.768130000000     0.972810000000    -0.0339841  
C71      C      0.495470000000     0.823720000000     0.993350000000     0.0516689  
C72      C      0.498970000000     0.674940000000     0.990830000000     0.0655982  
C73      C      0.500240000000     0.339630000000     0.966020000000    -0.117499   
C74      C      0.461780000000     0.120540000000     0.998200000000     0.0754364  
C75      C      0.522300000000     0.120870000000     0.003880000000     0.0750415  
C76      C      0.461110000000     0.156360000000     0.998360000000    -0.0919372  
C77      C      0.472360000000     0.230920000000     0.976730000000    -0.0340444  
C78      C      0.473310000000     0.266730000000     0.975640000000    -0.0308461  
C79      C      0.491650000000     0.212870000000     0.001240000000    -0.00426469 
C80      C      0.522510000000     0.156670000000     0.004500000000    -0.0922497  
C81      C      0.493260000000     0.285230000000     0.999270000000    -0.00964398 
C82      C      0.493030000000     0.343140000000     0.027050000000    -0.0998144  
C83      C      0.512080000000     0.267200000000     0.024160000000    -0.0309068  
C84      C      0.495350000000     0.378760000000     0.024810000000     0.079922   
C85      C      0.503510000000     0.375440000000     0.964440000000     0.168741   
C86      C      0.511420000000     0.231370000000     0.025020000000    -0.0346009  
C87      C      0.491710000000     0.174830000000     0.001530000000     0.0518323  
C88      C      0.495120000000     0.323190000000     0.997420000000     0.0661057  
C89      C      0.506680000000     0.971410000000     0.656520000000    -0.117425   
C90      C      0.465110000000     0.000280000000     0.875640000000     0.0747565  
C91      C      0.525640000000     0.005650000000     0.876890000000     0.0746313  
C92      C      0.465340000000     0.000730000000     0.839810000000    -0.0918754  
C93      C      0.478130000000     0.979920000000     0.765320000000    -0.0338978  
C94      C      0.479510000000     0.979480000000     0.729510000000    -0.031024   
C95      C      0.497200000000     0.004070000000     0.784070000000    -0.00433245 
C96      C      0.526750000000     0.006580000000     0.841090000000    -0.0919116  
C97      C      0.499690000000     0.003430000000     0.711680000000    -0.0093263  
C98      C      0.499470000000     0.032500000000     0.654360000000    -0.0995004  
C99      C      0.518410000000     0.027880000000     0.730400000000    -0.0310693  
C100     C      0.501280000000     0.030990000000     0.618650000000     0.079744   
C101     C      0.509470000000     0.970570000000     0.620640000000     0.168292   
C102     C      0.517330000000     0.028070000000     0.766240000000    -0.0344259  
C103     C      0.496400000000     0.003920000000     0.822120000000     0.0514687  
C104     C      0.501670000000     0.002460000000     0.673680000000     0.0659374  
C105     C      0.462350000000     0.993350000000     0.156260000000    -0.117315   
C106     C      0.495980000000     0.030020000000     0.376210000000     0.0741138  
C107     C      0.500190000000     0.969350000000     0.376430000000     0.0742772  
C108     C      0.494820000000     0.030260000000     0.340390000000    -0.0922607  
C109     C      0.471790000000     0.018880000000     0.266150000000    -0.0343135  
C110     C      0.470850000000     0.018260000000     0.230310000000    -0.0313705  
C111     C      0.495970000000     0.999110000000     0.284150000000    -0.00485277 
C112     C      0.499500000000     0.968710000000     0.340630000000    -0.0921236  
C113     C      0.494340000000     0.998210000000     0.211740000000    -0.00983139 
C114     C      0.523490000000     0.999950000000     0.154610000000    -0.100057   
C115     C      0.518680000000     0.978660000000     0.229740000000    -0.0314461  
C116     C      0.522190000000     0.998960000000     0.118900000000     0.0793938  
C117     C      0.461700000000     0.991400000000     0.120290000000     0.167772   
C118     C      0.519360000000     0.978960000000     0.265570000000    -0.0348474  
C119     C      0.496740000000     0.999380000000     0.322190000000     0.0510128  
C120     C      0.493360000000     0.997480000000     0.173700000000     0.0655329  
C121     C      0.964960000000     0.487150000000     0.652070000000    -0.117078   
C122     C      0.002940000000     0.522640000000     0.872190000000     0.0763371  
C123     C      0.004230000000     0.461860000000     0.871630000000     0.0787119  
C124     C      0.002380000000     0.523420000000     0.836380000000    -0.0912879  
C125     C      0.019470000000     0.517270000000     0.760530000000    -0.0341264  
C126     C      0.017810000000     0.517440000000     0.724720000000    -0.0308469  
C127     C      0.000930000000     0.492950000000     0.779640000000    -0.00353118 
C128     C      0.003750000000     0.461720000000     0.835840000000    -0.090144   
C129     C      0.997550000000     0.493300000000     0.707190000000    -0.00886255 
C130     C      0.025430000000     0.498230000000     0.649500000000    -0.099439   
C131     C      0.979030000000     0.468990000000     0.726320000000    -0.0300493  
C132     C      0.023600000000     0.497380000000     0.613800000000     0.0802344  
C133     C      0.963790000000     0.485720000000     0.616120000000     0.168791   
C134     C      0.980670000000     0.468850000000     0.762090000000    -0.0331888  
C135     C      0.002540000000     0.492720000000     0.817730000000     0.052507   
C136     C      0.995900000000     0.493250000000     0.669110000000     0.0663037  
C137     C      0.994690000000     0.460460000000     0.151980000000    -0.117773   
C138     C      0.961020000000     0.498670000000     0.371970000000     0.0744832  
C139     C      0.021790000000     0.497390000000     0.371730000000     0.0745036  
C140     C      0.960420000000     0.498320000000     0.336160000000    -0.0919959  
C141     C      0.968700000000     0.516440000000     0.260470000000    -0.0346393  
C142     C      0.968930000000     0.515160000000     0.224630000000    -0.0312052  
C143     C      0.991130000000     0.495750000000     0.279660000000    -0.0045065  
C144     C      0.022100000000     0.496880000000     0.335950000000    -0.0925499  
C145     C      0.991440000000     0.493010000000     0.207250000000    -0.00925161 
C146     C      0.991080000000     0.521840000000     0.149850000000    -0.0997158  
C147     C      0.013740000000     0.472230000000     0.226480000000    -0.0309143  
C148     C      0.993080000000     0.520250000000     0.114180000000     0.0805178  
C149     C      0.997030000000     0.459430000000     0.116110000000     0.172051   
C150     C      0.013610000000     0.473610000000     0.262250000000    -0.0338821  
C151     C      0.991190000000     0.497150000000     0.317710000000     0.0513881  
C152     C      0.992050000000     0.491760000000     0.169200000000     0.0668598  
C153     C      0.159430000000     0.998880000000     0.536180000000    -0.117305   
C154     C      0.380120000000     0.970920000000     0.501980000000     0.0752195  
C155     C      0.380580000000     0.031710000000     0.500770000000     0.0746893  
C156     C      0.344330000000     0.970760000000     0.503070000000    -0.0916131  
C157     C      0.269360000000     0.024330000000     0.482690000000    -0.034266   
C158     C      0.233520000000     0.024120000000     0.483240000000    -0.0308772  
C159     C      0.288140000000     0.002000000000     0.503870000000    -0.00417661 
C160     C      0.344780000000     0.032460000000     0.501640000000    -0.0918948  
C161     C      0.215680000000     0.001740000000     0.505160000000    -0.00879584 
C162     C      0.159150000000     0.001590000000     0.474720000000    -0.0990876  
C163     C      0.234470000000     0.979620000000     0.526540000000    -0.0305565  
C164     C      0.123440000000     0.999870000000     0.475270000000     0.0814125  
C165     C      0.123510000000     0.996880000000     0.536180000000     0.173783   
C166     C      0.270280000000     0.979700000000     0.525840000000    -0.0335224  
C167     C      0.326210000000     0.001760000000     0.502870000000     0.0516303  
C168     C      0.177600000000     0.001030000000     0.505370000000     0.0674166  
C169     C      0.844020000000     0.991550000000     0.465390000000    -0.116968   
C170     C      0.623420000000     0.029220000000     0.492400000000     0.0754923  
C171     C      0.622820000000     0.968630000000     0.497480000000     0.0767921  
C172     C      0.659230000000     0.029290000000     0.491980000000    -0.091836   
C173     C      0.734010000000     0.017380000000     0.471170000000    -0.0339884  
C174     C      0.769850000000     0.016710000000     0.471320000000    -0.0309444  
C175     C      0.715270000000     0.997970000000     0.495070000000    -0.00424569 
C176     C      0.658610000000     0.967820000000     0.497550000000    -0.0911246  
C177     C      0.787660000000     0.996960000000     0.495650000000    -0.00915058 
C178     C      0.843870000000     0.998900000000     0.526490000000    -0.0985172  
C179     C      0.768900000000     0.977750000000     0.519690000000    -0.0306352  
C180     C      0.879590000000     0.997690000000     0.526270000000     0.081568   
C181     C      0.879950000000     0.989390000000     0.465830000000     0.168731   
C182     C      0.733090000000     0.978110000000     0.519290000000    -0.0340589  
C183     C      0.677240000000     0.998370000000     0.494780000000     0.0518778  
C184     C      0.825690000000     0.996140000000     0.495810000000     0.0663964  
C185     C      0.003770000000     0.837640000000     0.532210000000    -0.117187   
C186     C      0.963540000000     0.617800000000     0.496250000000     0.0751666  
C187     C      0.024300000000     0.616750000000     0.496310000000     0.0747152  
C188     C      0.963710000000     0.653630000000     0.497060000000    -0.0914097  
C189     C      0.972870000000     0.729040000000     0.478720000000    -0.0340436  
C190     C      0.973950000000     0.764880000000     0.479550000000    -0.0310286  
C191     C      0.995670000000     0.709550000000     0.498740000000    -0.00419843 
C192     C      0.025390000000     0.652520000000     0.497200000000    -0.0921685  
C193     C      0.997750000000     0.782020000000     0.500510000000    -0.00859211 
C194     C      0.996780000000     0.839180000000     0.471100000000    -0.0981856  
C195     C      0.020440000000     0.762510000000     0.520610000000    -0.030878   
C196     C      0.998870000000     0.874880000000     0.472230000000     0.0822453  
C197     C      0.006340000000     0.873530000000     0.532740000000     0.171267   
C198     C      0.019420000000     0.726710000000     0.519720000000    -0.0336133  
C199     C      0.994880000000     0.671450000000     0.497620000000     0.0515481  
C200     C      0.999120000000     0.820110000000     0.501300000000     0.0668663  
C201     C      0.999460000000     0.155560000000     0.526820000000    -0.1172     
C202     C      0.960760000000     0.374550000000     0.493020000000     0.0772277  
C203     C      0.021370000000     0.374300000000     0.488380000000     0.0758539  
C204     C      0.960170000000     0.338710000000     0.493080000000    -0.09087    
C205     C      0.971210000000     0.264130000000     0.515070000000    -0.0335304  
C206     C      0.972390000000     0.228320000000     0.516330000000    -0.030382   
C207     C      0.990920000000     0.282230000000     0.490920000000    -0.00389459 
C208     C      0.021660000000     0.338500000000     0.488010000000    -0.0918369  
C209     C      0.993000000000     0.209860000000     0.493230000000    -0.00908057 
C210     C      0.994120000000     0.151870000000     0.465620000000    -0.099182   
C211     C      0.012220000000     0.227940000000     0.468690000000    -0.0307114  
C212     C      0.996780000000     0.116290000000     0.467990000000     0.0810568  
C213     C      0.003070000000     0.119780000000     0.528570000000     0.170027   
C214     C      0.011320000000     0.263750000000     0.467660000000    -0.0344172  
C215     C      0.990860000000     0.320280000000     0.490530000000     0.0522876  
C216     C      0.995120000000     0.171910000000     0.495250000000     0.0666846  
Cu1      Cu     0.003050000000     0.995630000000     0.469460000000     0.85626    
Cu2      Cu     0.000080000000     0.996680000000     0.532440000000     0.884744   
Cu3      Cu     0.960600000000     0.496230000000     0.493490000000     0.861826   
Cu4      Cu     0.023790000000     0.495480000000     0.492980000000     0.850233   
Cu5      Cu     0.501430000000     0.968570000000     0.497880000000     0.864232   
Cu6      Cu     0.502030000000     0.031780000000     0.497640000000     0.845226   
Cu7      Cu     0.524800000000     0.999650000000     0.998280000000     0.848662   
Cu8      Cu     0.461630000000     0.998980000000     0.997110000000     0.861778   
Cu9      Cu     0.000170000000     0.459230000000     0.992820000000     0.889488   
Cu10     Cu     0.000060000000     0.522350000000     0.993670000000     0.843431   
Cu11     Cu     0.500540000000     0.499520000000     0.023650000000     0.84547    
Cu12     Cu     0.499620000000     0.498450000000     0.960480000000     0.878056   
H1       H      0.607640000000     0.498590000000     0.935740000000     0.0378418  
H2       H      0.892790000000     0.544660000000     0.998480000000     0.0275049  
H3       H      0.717420000000     0.460830000000     0.946210000000     0.0441242  
H4       H      0.782550000000     0.527960000000     0.032430000000     0.0402491  
H5       H      0.831100000000     0.546700000000     0.998590000000     0.0579538  
H6       H      0.720140000000     0.530350000000     0.032490000000     0.0410678  
H7       H      0.827600000000     0.438630000000     0.976810000000     0.0813426  
H8       H      0.669690000000     0.497990000000     0.934580000000     0.0595835  
H9       H      0.670960000000     0.495460000000     0.045210000000     0.0560465  
H10      H      0.779800000000     0.459800000000     0.945080000000     0.0446137  
H11      H      0.608950000000     0.497000000000     0.045520000000     0.0283247  
H12      H      0.392650000000     0.500650000000     0.048490000000     0.0275488  
H13      H      0.106990000000     0.545680000000     0.990740000000     0.0276664  
H14      H      0.283290000000     0.461520000000     0.037270000000     0.0419989  
H15      H      0.217210000000     0.531080000000     0.953720000000     0.0405416  
H16      H      0.168670000000     0.548310000000     0.989980000000     0.0578093  
H17      H      0.279720000000     0.533700000000     0.953270000000     0.0415819  
H18      H      0.173440000000     0.439110000000     0.004430000000     0.0812329  
H19      H      0.330590000000     0.500210000000     0.049820000000     0.0555247  
H20      H      0.328950000000     0.497750000000     0.939230000000     0.0577086  
H21      H      0.220860000000     0.459870000000     0.038530000000     0.044027   
H22      H      0.391030000000     0.498810000000     0.938710000000     0.0326662  
H23      H      0.549370000000     0.891790000000     0.995980000000     0.0282017  
H24      H      0.491660000000     0.607080000000     0.044210000000     0.0270205  
H25      H      0.539240000000     0.782130000000     0.957560000000     0.0418107  
H26      H      0.454230000000     0.716440000000     0.025650000000     0.0401903  
H27      H      0.489630000000     0.668840000000     0.045160000000     0.0573909  
H28      H      0.453180000000     0.778960000000     0.027270000000     0.0418775  
H29      H      0.510030000000     0.671080000000     0.936800000000     0.0802671  
H30      H      0.550670000000     0.829760000000     0.995160000000     0.0557333  
H31      H      0.440120000000     0.828190000000     0.991830000000     0.0571382  
H32      H      0.541260000000     0.719750000000     0.957180000000     0.0434513  
H33      H      0.439650000000     0.890310000000     0.993490000000     0.0324182  
H34      H      0.546780000000     0.107870000000     0.005990000000     0.0280466  
H35      H      0.492730000000     0.393000000000     0.048550000000     0.0273624  
H36      H      0.526320000000     0.218130000000     0.044360000000     0.0412571  
H37      H      0.458370000000     0.279990000000     0.956330000000     0.0440684  
H38      H      0.489040000000     0.331340000000     0.051880000000     0.0578327  
H39      H      0.457100000000     0.217320000000     0.957930000000     0.0424621  
H40      H      0.503400000000     0.324570000000     0.942870000000     0.0808063  
H41      H      0.546760000000     0.170030000000     0.006670000000     0.0564412  
H42      H      0.436730000000     0.169500000000     0.996290000000     0.0571649  
H43      H      0.527890000000     0.280770000000     0.042520000000     0.040733   
H44      H      0.437490000000     0.107250000000     0.995730000000     0.0304565  
H45      H      0.549780000000     0.007550000000     0.890520000000     0.0282086  
H46      H      0.498440000000     0.055000000000     0.604920000000     0.0277242  
H47      H      0.532090000000     0.047150000000     0.780030000000     0.0415014  
H48      H      0.464650000000     0.960480000000     0.715720000000     0.0440964  
H49      H      0.495620000000     0.057090000000     0.666720000000     0.0581872  
H50      H      0.462590000000     0.960950000000     0.778380000000     0.0424417  
H51      H      0.510020000000     0.947960000000     0.671070000000     0.0806783  
H52      H      0.551330000000     0.008770000000     0.828340000000     0.0564717  
H53      H      0.441280000000     0.998910000000     0.826070000000     0.0566484  
H54      H      0.534380000000     0.046480000000     0.717350000000     0.0410753  
H55      H      0.440470000000     0.997830000000     0.888270000000     0.0290758  
H56      H      0.502240000000     0.944980000000     0.389650000000     0.028642   
H57      H      0.546350000000     0.001800000000     0.105450000000     0.0275599  
H58      H      0.538440000000     0.963680000000     0.278760000000     0.0409307  
H59      H      0.451950000000     0.033730000000     0.217080000000     0.043291   
H60      H      0.548040000000     0.003250000000     0.167190000000     0.0576283  
H61      H      0.453300000000     0.034450000000     0.279820000000     0.0414792  
H62      H      0.438780000000     0.990020000000     0.170590000000     0.0800686  
H63      H      0.500720000000     0.944260000000     0.327490000000     0.0560758  
H64      H      0.492940000000     0.054550000000     0.327030000000     0.0553866  
H65      H      0.536910000000     0.962750000000     0.216110000000     0.0404377  
H66      H      0.494620000000     0.054530000000     0.389260000000     0.0274948  
H67      H      0.005000000000     0.437240000000     0.884520000000     0.0364394  
H68      H      0.047250000000     0.501950000000     0.599920000000     0.0275046  
H69      H      0.965730000000     0.450020000000     0.776010000000     0.044515   
H70      H      0.032170000000     0.536680000000     0.710760000000     0.0404474  
H71      H      0.050060000000     0.502420000000     0.661630000000     0.0580712  
H72      H      0.035590000000     0.535990000000     0.773230000000     0.0410954  
H73      H      0.941710000000     0.482690000000     0.666610000000     0.0807426  
H74      H      0.004510000000     0.437380000000     0.822480000000     0.0593647  
H75      H      0.001100000000     0.547980000000     0.823470000000     0.056399   
H76      H      0.963530000000     0.449750000000     0.713640000000     0.04469    
H77      H      0.002420000000     0.547010000000     0.885570000000     0.0284707  
H78      H      0.046340000000     0.497060000000     0.384760000000     0.0276514  
H79      H      0.992190000000     0.544480000000     0.100550000000     0.0277352  
H80      H      0.030950000000     0.457080000000     0.276300000000     0.0419077  
H81      H      0.951280000000     0.531310000000     0.210520000000     0.0400886  
H82      H      0.989400000000     0.546680000000     0.162200000000     0.0576354  
H83      H      0.951260000000     0.533950000000     0.273140000000     0.0405523  
H84      H      0.995480000000     0.436670000000     0.166340000000     0.0813401  
H85      H      0.046490000000     0.496500000000     0.322680000000     0.0555989  
H86      H      0.935930000000     0.498260000000     0.323050000000     0.0559759  
H87      H      0.031670000000     0.455180000000     0.213860000000     0.0444473  
H88      H      0.936600000000     0.499240000000     0.385230000000     0.0286098  
H89      H      0.393910000000     0.056100000000     0.499970000000     0.0278395  
H90      H      0.110580000000     0.000510000000     0.450630000000     0.0293653  
H91      H      0.284020000000     0.962410000000     0.542710000000     0.0429454  
H92      H      0.219760000000     0.041640000000     0.466650000000     0.0410435  
H93      H      0.172230000000     0.002820000000     0.450250000000     0.0585685  
H94      H      0.282370000000     0.041620000000     0.465270000000     0.0409392  
H95      H      0.173090000000     0.998310000000     0.560380000000     0.0820727  
H96      H      0.331780000000     0.057010000000     0.501810000000     0.0560962  
H97      H      0.330960000000     0.946420000000     0.503590000000     0.0568238  
H98      H      0.221480000000     0.961830000000     0.543460000000     0.0449749  
H99      H      0.393050000000     0.946310000000     0.502040000000     0.0304003  
H100     H      0.609450000000     0.944350000000     0.499650000000     0.0331938  
H101     H      0.892320000000     0.000750000000     0.550800000000     0.0337     
H102     H      0.719310000000     0.963110000000     0.538180000000     0.0434056  
H103     H      0.783660000000     0.031910000000     0.452620000000     0.0437636  
H104     H      0.830590000000     0.002580000000     0.550610000000     0.0606755  
H105     H      0.720940000000     0.032730000000     0.452070000000     0.041744   
H106     H      0.830390000000     0.988000000000     0.441420000000     0.080228   
H107     H      0.671610000000     0.943340000000     0.499410000000     0.0580503  
H108     H      0.672730000000     0.053500000000     0.490050000000     0.0562592  
H109     H      0.781940000000     0.962060000000     0.538540000000     0.0426347  
H110     H      0.610520000000     0.053770000000     0.490430000000     0.0280606  
H111     H      0.048570000000     0.603210000000     0.495930000000     0.0277739  
H112     H      0.996450000000     0.888330000000     0.448010000000     0.0334101  
H113     H      0.037090000000     0.712470000000     0.535720000000     0.0420726  
H114     H      0.955950000000     0.779180000000     0.463970000000     0.0419099  
H115     H      0.993710000000     0.826610000000     0.446520000000     0.0596339  
H116     H      0.954480000000     0.716610000000     0.462030000000     0.0411924  
H117     H      0.006080000000     0.823490000000     0.556020000000     0.0813189  
H118     H      0.050070000000     0.665250000000     0.497120000000     0.0556776  
H119     H      0.939510000000     0.667240000000     0.497760000000     0.056909   
H120     H      0.039360000000     0.774900000000     0.536730000000     0.0443027  
H121     H      0.938830000000     0.605080000000     0.495990000000     0.0301771  
H122     H      0.045860000000     0.387320000000     0.486610000000     0.0283098  
H123     H      0.995010000000     0.101990000000     0.444200000000     0.0305782  
H124     H      0.026560000000     0.277010000000     0.448590000000     0.0414051  
H125     H      0.957120000000     0.215030000000     0.535350000000     0.044926   
H126     H      0.990740000000     0.163580000000     0.440650000000     0.0592882  
H127     H      0.955450000000     0.277710000000     0.533470000000     0.0442259  
H128     H      0.001800000000     0.170680000000     0.550030000000     0.0817842  
H129     H      0.045980000000     0.325190000000     0.486350000000     0.056674   
H130     H      0.935780000000     0.325530000000     0.494800000000     0.0580682  
H131     H      0.028560000000     0.214420000000     0.450740000000     0.0412233  
H132     H      0.936410000000     0.387810000000     0.495010000000     0.0334634  
N1       N      0.896490000000     0.490710000000     0.987390000000    -0.20148    
N2       N      0.603630000000     0.497840000000     0.990690000000    -0.191711   
N3       N      0.893790000000     0.430080000000     0.969370000000    -0.0316074  
N4       N      0.103870000000     0.491050000000     0.998190000000    -0.201357   
N5       N      0.396510000000     0.499670000000     0.993530000000    -0.192781   
N6       N      0.107450000000     0.429140000000     0.011000000000    -0.032884   
N7       N      0.502240000000     0.602800000000     0.990210000000    -0.201681   
N8       N      0.494440000000     0.895720000000     0.994810000000    -0.192413   
N9       N      0.519390000000     0.604970000000     0.929310000000    -0.0318011  
N10      N      0.499970000000     0.395110000000     0.993850000000    -0.201535   
N11      N      0.492170000000     0.102900000000     0.000710000000    -0.192857   
N12      N      0.513150000000     0.390180000000     0.932100000000    -0.0316391  
N13      N      0.505470000000     0.000340000000     0.601620000000    -0.201284   
N14      N      0.495050000000     0.002520000000     0.894080000000    -0.192951   
N15      N      0.519090000000     0.938590000000     0.605100000000    -0.0315644  
N16      N      0.491660000000     0.995290000000     0.101550000000    -0.201208   
N17      N      0.498580000000     0.999790000000     0.394130000000    -0.193052   
N18      N      0.429650000000     0.982860000000     0.104340000000    -0.0315797  
N19      N      0.993090000000     0.491790000000     0.596970000000    -0.201725   
N20      N      0.003540000000     0.492080000000     0.889720000000    -0.192071   
N21      N      0.932140000000     0.475140000000     0.600550000000    -0.0318123  
N22      N      0.996010000000     0.489470000000     0.097100000000    -0.201063   
N23      N      0.991480000000     0.498000000000     0.389660000000    -0.193333   
N24      N      0.001920000000     0.426490000000     0.100510000000    -0.0328725  
N25      N      0.105410000000     0.997700000000     0.505570000000    -0.200261   
N26      N      0.398160000000     0.001170000000     0.500880000000    -0.192821   
N27      N      0.106870000000     0.992560000000     0.568680000000    -0.0326165  
N28      N      0.897810000000     0.993500000000     0.496310000000    -0.2005     
N29      N      0.605310000000     0.999120000000     0.495150000000    -0.192409   
N30      N      0.896800000000     0.980380000000     0.434370000000    -0.0315557  
N31      N      0.003100000000     0.892240000000     0.502690000000    -0.200468   
N32      N      0.993610000000     0.599460000000     0.495890000000    -0.192978   
N33      N      0.014650000000     0.889430000000     0.564870000000    -0.0329534  
N34      N      0.000640000000     0.100030000000     0.499100000000    -0.20111    
N35      N      0.991150000000     0.392240000000     0.490890000000    -0.19229    
N36      N      0.011960000000     0.105170000000     0.561190000000    -0.0323771  
O1       O      0.002480000000     0.047690000000     0.471620000000    -0.395043   
O2       O      0.003460000000     0.943650000000     0.473420000000    -0.391213   
O3       O      0.950970000000     0.995090000000     0.470090000000    -0.374979   
O4       O      0.054830000000     0.996210000000     0.474960000000    -0.396087   
O5       O      0.052180000000     0.997890000000     0.531810000000    -0.366554   
O6       O      0.948330000000     0.995290000000     0.526980000000    -0.393746   
O7       O      0.001310000000     0.944660000000     0.530330000000    -0.372529   
O8       O      0.999100000000     0.048580000000     0.528470000000    -0.374814   
O9       O      0.963040000000     0.444150000000     0.492310000000    -0.389855   
O10      O      0.964300000000     0.548220000000     0.494730000000    -0.39461    
O11      O      0.963230000000     0.497470000000     0.441470000000    -0.397077   
O12      O      0.964130000000     0.494800000000     0.545400000000    -0.37585    
O13      O      0.021100000000     0.493830000000     0.544960000000    -0.397481   
O14      O      0.020340000000     0.497040000000     0.441080000000    -0.397865   
O15      O      0.021390000000     0.547440000000     0.494570000000    -0.397601   
O16      O      0.020140000000     0.443590000000     0.491380000000    -0.396426   
O17      O      0.553420000000     0.971100000000     0.496750000000    -0.391152   
O18      O      0.449500000000     0.972130000000     0.499160000000    -0.394857   
O19      O      0.500300000000     0.971460000000     0.445880000000    -0.397206   
O20      O      0.502720000000     0.971800000000     0.549780000000    -0.376171   
O21      O      0.504090000000     0.028760000000     0.549700000000    -0.395943   
O22      O      0.499940000000     0.028590000000     0.445650000000    -0.396198   
O23      O      0.450040000000     0.029260000000     0.499570000000    -0.396117   
O24      O      0.553970000000     0.028210000000     0.495630000000    -0.395351   
O25      O      0.520800000000     0.997380000000     0.050140000000    -0.397516   
O26      O      0.522660000000     0.001800000000     0.946250000000    -0.396214   
O27      O      0.521180000000     0.051540000000     0.000380000000    -0.396895   
O28      O      0.522340000000     0.947690000000     0.996210000000    -0.396193   
O29      O      0.465240000000     0.947010000000     0.995910000000    -0.390968   
O30      O      0.464120000000     0.051020000000     0.998340000000    -0.394233   
O31      O      0.465580000000     0.000210000000     0.945170000000    -0.396293   
O32      O      0.463870000000     0.997730000000     0.049180000000    -0.374766   
O33      O      0.997660000000     0.461590000000     0.044760000000    -0.370875   
O34      O      0.002550000000     0.462930000000     0.940980000000    -0.389873   
O35      O      0.052080000000     0.462370000000     0.995300000000    -0.373536   
O36      O      0.948310000000     0.462230000000     0.990320000000    -0.374568   
O37      O      0.948140000000     0.519210000000     0.991180000000    -0.396992   
O38      O      0.052000000000     0.519340000000     0.996010000000    -0.396805   
O39      O      0.002280000000     0.520050000000     0.941680000000    -0.395686   
O40      O      0.997840000000     0.518520000000     0.045580000000    -0.396628   
O41      O      0.500160000000     0.447450000000     0.021430000000    -0.397065   
O42      O      0.501080000000     0.551500000000     0.019630000000    -0.397099   
O43      O      0.448540000000     0.499940000000     0.021340000000    -0.396992   
O44      O      0.552420000000     0.498930000000     0.019900000000    -0.395619   
O45      O      0.551640000000     0.497970000000     0.962800000000    -0.385384   
O46      O      0.447710000000     0.499060000000     0.964230000000    -0.393486   
O47      O      0.500320000000     0.550430000000     0.962650000000    -0.377055   
O48      O      0.499120000000     0.446570000000     0.964470000000    -0.376612   
O49      O      0.912200000000     0.430060000000     0.941540000000    -0.0922975  
O50      O      0.884270000000     0.400920000000     0.982510000000    -0.0968796  
O51      O      0.090530000000     0.426030000000     0.039580000000    -0.0788739  
O52      O      0.116440000000     0.401620000000     0.994420000000    -0.0974955  
O53      O      0.547710000000     0.587340000000     0.929300000000    -0.0941915  
O54      O      0.505700000000     0.613620000000     0.900130000000    -0.102036   
O55      O      0.496980000000     0.381230000000     0.904320000000    -0.102247   
O56      O      0.542240000000     0.406310000000     0.929410000000    -0.0932602  
O57      O      0.503600000000     0.910440000000     0.614100000000    -0.104025   
O58      O      0.547610000000     0.936580000000     0.587900000000    -0.0954172  
O59      O      0.401950000000     0.999300000000     0.113020000000    -0.104253   
O60      O      0.426870000000     0.954300000000     0.087280000000    -0.0955129  
O61      O      0.903420000000     0.489020000000     0.610300000000    -0.102924   
O62      O      0.931270000000     0.447130000000     0.582420000000    -0.095382   
O63      O      0.980020000000     0.402040000000     0.106480000000    -0.0946188  
O64      O      0.031640000000     0.418790000000     0.087500000000    -0.0775783  
O65      O      0.112730000000     0.014390000000     0.593220000000    -0.0896677  
O66      O      0.092730000000     0.963270000000     0.576070000000    -0.0765222  
O67      O      0.889140000000     0.996630000000     0.406240000000    -0.104234   
O68      O      0.913610000000     0.951620000000     0.432390000000    -0.0953309  
O69      O      0.043700000000     0.905490000000     0.568160000000    -0.0786111  
O70      O      0.997340000000     0.881510000000     0.592260000000    -0.0969587  
O71      O      0.995060000000     0.114140000000     0.588520000000    -0.0979979  
O72      O      0.041000000000     0.089120000000     0.564650000000    -0.0831042  


