data_structure

_audit_creation_method RASPA-1.0
_audit_creation_date 2023-6-5
_audit_author_name 'Poobodin Mano'

_cell_length_a    63.5779
_cell_length_b    63.6538
_cell_length_c    38.3949
_cell_angle_alpha 89.9311
_cell_angle_beta  90.0687
_cell_angle_gamma 119.94
_cell_volume      134647

_symmetry_cell_setting          triclinic
_symmetry_space_group_name_Hall 'P 1'
_symmetry_space_group_name_H-M  'P 1'
_symmetry_Int_Tables_number     1

_symmetry_equiv_pos_as_xyz 'x,y,z'

loop_
_atom_site_label
_atom_site_type_symbol
_atom_site_fract_x
_atom_site_fract_y
_atom_site_fract_z
_atom_site_charge
C1       C      0.882420000000     0.683560000000     0.656090000000     0.408716   
C2       C      0.788700000000     0.641420000000     0.621550000000     0.406535   
C3       C      0.824770000000     0.661550000000     0.706330000000     0.408333   
C4       C      0.846670000000     0.663850000000     0.571630000000     0.409163   
C5       C      0.216270000000     0.864990000000     0.819850000000     0.406304   
C6       C      0.122770000000     0.810910000000     0.786000000000     0.406343   
C7       C      0.159010000000     0.826160000000     0.869950000000     0.408653   
C8       C      0.179430000000     0.849480000000     0.735700000000     0.407658   
C9       C      0.460620000000     0.989290000000     0.933200000000     0.408399   
C10      C      0.554170000000     0.035130000000     0.969490000000     0.406106   
C11      C      0.518960000000     0.013360000000     0.884310000000     0.406596   
C12      C      0.496070000000     0.011470000000     0.018310000000     0.406326   
C13      C      0.211790000000     0.345840000000     0.337550000000     0.406233   
C14      C      0.117930000000     0.301260000000     0.302980000000     0.408477   
C15      C      0.153850000000     0.322580000000     0.387600000000     0.405788   
C16      C      0.175550000000     0.324530000000     0.252910000000     0.408128   
C17      C      0.789490000000     0.152630000000     0.117940000000     0.407532   
C18      C      0.882450000000     0.193770000000     0.155990000000     0.405707   
C19      C      0.847600000000     0.173800000000     0.070530000000     0.404197   
C20      C      0.824440000000     0.172460000000     0.203400000000     0.404086   
C21      C      0.548430000000     0.521350000000     0.491210000000     0.408991   
C22      C      0.454000000000     0.468110000000     0.461060000000     0.408061   
C23      C      0.491330000000     0.486720000000     0.543900000000     0.409742   
C24      C      0.510600000000     0.502290000000     0.408090000000     0.409337   
C25      C      0.135920000000     0.348390000000     0.839550000000     0.405157   
C26      C      0.190840000000     0.310710000000     0.800970000000     0.405152   
C27      C      0.174250000000     0.328180000000     0.887150000000     0.40576    
C28      C      0.152440000000     0.331060000000     0.753550000000     0.408428   
C29      C      0.321970000000     0.203760000000     0.662090000000     0.407021   
C30      C      0.372950000000     0.164100000000     0.615230000000     0.4092     
C31      C      0.359050000000     0.181160000000     0.706900000000     0.406359   
C32      C      0.339930000000     0.185310000000     0.574000000000     0.410655   
C33      C      0.010990000000     0.464710000000     0.963090000000     0.408005   
C34      C      0.966390000000     0.514260000000     0.994150000000     0.404024   
C35      C      0.991400000000     0.501080000000     0.911790000000     0.411587   
C36      C      0.986660000000     0.478010000000     0.045610000000     0.403676   
C37      C      0.645850000000     0.864630000000     0.319310000000     0.405142   
C38      C      0.684460000000     0.810120000000     0.282270000000     0.406456   
C39      C      0.668080000000     0.828380000000     0.367850000000     0.40624    
C40      C      0.662180000000     0.846800000000     0.233640000000     0.408549   
C41      C      0.798070000000     0.681680000000     0.156260000000     0.404548   
C42      C      0.843520000000     0.633330000000     0.120530000000     0.406483   
C43      C      0.830730000000     0.655780000000     0.205720000000     0.405576   
C44      C      0.811270000000     0.659390000000     0.071300000000     0.405875   
C45      C      0.532200000000     0.995260000000     0.435210000000     0.406522   
C46      C      0.488880000000     0.046270000000     0.467420000000     0.405327   
C47      C      0.501870000000     0.023210000000     0.384020000000     0.409115   
C48      C      0.518940000000     0.018670000000     0.519170000000     0.408881   
C49      C      0.330280000000     0.123410000000     0.152300000000     0.408587   
C50      C      0.378240000000     0.218600000000     0.126640000000     0.405822   
C51      C      0.356440000000     0.178790000000     0.208120000000     0.406382   
C52      C      0.352250000000     0.162980000000     0.071250000000     0.406866   
C53      C      0.487620000000     0.458340000000     0.995780000000     0.407301   
C54      C      0.530940000000     0.551340000000     0.957030000000     0.406002   
C55      C      0.516090000000     0.517460000000     0.043460000000     0.407031   
C56      C      0.502310000000     0.492220000000     0.909530000000     0.407618   
C57      C      0.202440000000     0.883800000000     0.283270000000     0.405916   
C58      C      0.148460000000     0.791100000000     0.321440000000     0.407527   
C59      C      0.167070000000     0.825170000000     0.235300000000     0.405812   
C60      C      0.183790000000     0.849820000000     0.369450000000     0.406304   
C61      C      0.023200000000     0.553530000000     0.461350000000     0.405904   
C62      C      0.973790000000     0.459640000000     0.495340000000     0.407384   
C63      C      0.994210000000     0.495760000000     0.410720000000     0.406201   
C64      C      0.003130000000     0.517610000000     0.546160000000     0.404162   
C65      C      0.857530000000     0.218140000000     0.621620000000     0.405354   
C66      C      0.812360000000     0.123650000000     0.652300000000     0.407171   
C67      C      0.826690000000     0.161320000000     0.569080000000     0.405629   
C68      C      0.843250000000     0.180720000000     0.704800000000     0.405975   
C69      C      0.642690000000     0.789500000000     0.818620000000     0.406934   
C70      C      0.688870000000     0.883010000000     0.782200000000     0.405658   
C71      C      0.667300000000     0.848060000000     0.867620000000     0.406212   
C72      C      0.664080000000     0.824150000000     0.733740000000     0.407736   
C73      C      0.800000000000     0.062440000000     0.678950000000    -0.106494   
C74      C      0.687930000000     0.918240000000     0.763320000000     0.0725323  
C75      C      0.725470000000     0.918930000000     0.767050000000     0.0725308  
C76      C      0.699650000000     0.942000000000     0.750630000000    -0.0928706  
C77      C      0.726910000000     0.986290000000     0.704550000000    -0.035811   
C78      C      0.739110000000     0.009670000000     0.690480000000    -0.0345793  
C79      C      0.737630000000     0.979480000000     0.731070000000    -0.00642786 
C80      C      0.737740000000     0.942610000000     0.754240000000    -0.0933099  
C81      C      0.762380000000     0.026720000000     0.702410000000    -0.00927272 
C82      C      0.763510000000     0.064650000000     0.682120000000    -0.0966882  
C83      C      0.773100000000     0.019990000000     0.728920000000    -0.0345723  
C84      C      0.776290000000     0.088350000000     0.669600000000     0.0722531  
C85      C      0.812510000000     0.086230000000     0.666030000000     0.104481   
C86      C      0.760840000000     0.996690000000     0.743180000000    -0.0358104  
C87      C      0.724850000000     0.954450000000     0.745630000000     0.0492615  
C88      C      0.775430000000     0.051560000000     0.687500000000     0.0555389  
C89      C      0.924820000000     0.398670000000     0.522520000000    -0.106482   
C90      C      0.893470000000     0.254380000000     0.605330000000     0.0727423  
C91      C      0.855930000000     0.253800000000     0.607490000000     0.0723566  
C92      C      0.905170000000     0.278280000000     0.593390000000    -0.0931258  
C93      C      0.921820000000     0.322420000000     0.547520000000    -0.0357638  
C94      C      0.933020000000     0.345900000000     0.533890000000    -0.0344657  
C95      C      0.903920000000     0.315250000000     0.573490000000    -0.00634886 
C96      C      0.867050000000     0.277680000000     0.595390000000    -0.0928724  
C97      C      0.926500000000     0.362740000000     0.545730000000    -0.00930513 
C98      C      0.963470000000     0.400770000000     0.526230000000    -0.0967802  
C99      C      0.908570000000     0.355610000000     0.571590000000    -0.0344709  
C100     C      0.974470000000     0.424440000000     0.513570000000     0.0723615  
C101     C      0.936180000000     0.422430000000     0.509510000000     0.104544   
C102     C      0.897460000000     0.332150000000     0.585380000000    -0.0358314  
C103     C      0.891920000000     0.290170000000     0.587800000000     0.0493261  
C104     C      0.938420000000     0.387710000000     0.531290000000     0.0556098  
C105     C      0.097710000000     0.732340000000     0.352410000000    -0.10646    
C106     C      0.060250000000     0.588630000000     0.445080000000     0.0724651  
C107     C      0.023460000000     0.589610000000     0.444030000000     0.0723189  
C108     C      0.072900000000     0.612210000000     0.431900000000    -0.0932699  
C109     C      0.091040000000     0.654910000000     0.382450000000    -0.0361086  
C110     C      0.102940000000     0.677910000000     0.367220000000    -0.0344992  
C111     C      0.073430000000     0.649310000000     0.408420000000    -0.00647117 
C112     C      0.035550000000     0.613190000000     0.430810000000    -0.0931984  
C113     C      0.097490000000     0.695840000000     0.377530000000    -0.00943831 
C114     C      0.135200000000     0.731960000000     0.355300000000    -0.0969116  
C115     C      0.079880000000     0.690250000000     0.403480000000    -0.0344027  
C116     C      0.147100000000     0.755210000000     0.341130000000     0.0724719  
C117     C      0.109990000000     0.755690000000     0.337950000000     0.104651   
C118     C      0.068000000000     0.667250000000     0.418770000000    -0.0359782  
C119     C      0.060510000000     0.624690000000     0.424150000000     0.0492762  
C120     C      0.110290000000     0.720350000000     0.361540000000     0.0555068  
C121     C      0.595010000000     0.727580000000     0.844080000000    -0.106751   
C122     C      0.566630000000     0.587820000000     0.940700000000     0.0724941  
C123     C      0.528320000000     0.585570000000     0.937780000000     0.0723603  
C124     C      0.578000000000     0.611400000000     0.927450000000    -0.0930548  
C125     C      0.595230000000     0.654560000000     0.879380000000    -0.0359065  
C126     C      0.606110000000     0.677720000000     0.864640000000    -0.034607   
C127     C      0.575920000000     0.647010000000     0.903120000000    -0.00637579 
C128     C      0.539080000000     0.609050000000     0.924200000000    -0.0928812  
C129     C      0.597810000000     0.693800000000     0.873030000000    -0.00941558 
C130     C      0.634430000000     0.732730000000     0.855280000000    -0.0968198  
C131     C      0.578510000000     0.686320000000     0.896660000000    -0.0345433  
C132     C      0.644870000000     0.756070000000     0.841460000000     0.0722624  
C133     C      0.605850000000     0.750970000000     0.829820000000     0.104296   
C134     C      0.567750000000     0.663240000000     0.911650000000    -0.0359473  
C135     C      0.564210000000     0.622250000000     0.918590000000     0.0490997  
C136     C      0.609250000000     0.718360000000     0.857270000000     0.0554162  
C137     C      0.281230000000     0.061770000000     0.175460000000    -0.107197   
C138     C      0.240600000000     0.917610000000     0.267070000000     0.0722989  
C139     C      0.205040000000     0.920810000000     0.265390000000     0.0729206  
C140     C      0.254470000000     0.941360000000     0.254720000000    -0.0929757  
C141     C      0.276220000000     0.986320000000     0.208810000000    -0.0357731  
C142     C      0.288680000000     0.009620000000     0.194470000000    -0.0343841  
C143     C      0.257500000000     0.980170000000     0.233180000000    -0.00644775 
C144     C      0.218290000000     0.944470000000     0.252800000000    -0.0934106  
C145     C      0.282510000000     0.027170000000     0.203940000000    -0.00952696 
C146     C      0.320010000000     0.064940000000     0.184920000000    -0.0968584  
C147     C      0.264140000000     0.021200000000     0.228710000000    -0.0345617  
C148     C      0.331180000000     0.088510000000     0.171690000000     0.0725853  
C149     C      0.292750000000     0.085290000000     0.161740000000     0.105356   
C150     C      0.251880000000     0.998040000000     0.243290000000    -0.0359441  
C151     C      0.243320000000     0.955080000000     0.247220000000     0.0493826  
C152     C      0.294810000000     0.051580000000     0.187800000000     0.0559579  
C153     C      0.442290000000     0.397040000000     0.027200000000    -0.10644    
C154     C      0.414960000000     0.255200000000     0.113580000000     0.0722205  
C155     C      0.377360000000     0.254510000000     0.112120000000     0.0728314  
C156     C      0.427100000000     0.279340000000     0.102400000000    -0.0929291  
C157     C      0.444510000000     0.324050000000     0.056440000000    -0.0359023  
C158     C      0.454900000000     0.347320000000     0.042050000000    -0.0342517  
C159     C      0.426240000000     0.316500000000     0.081890000000    -0.00630193 
C160     C      0.388880000000     0.278560000000     0.100940000000    -0.0932406  
C161     C      0.447200000000     0.363520000000     0.052710000000    -0.00936325 
C162     C      0.482230000000     0.402090000000     0.030010000000    -0.0966831  
C163     C      0.429320000000     0.356150000000     0.078660000000    -0.0343091  
C164     C      0.491500000000     0.425180000000     0.015630000000     0.0723931  
C165     C      0.451910000000     0.420200000000     0.012480000000     0.104711   
C166     C      0.419000000000     0.332960000000     0.093120000000    -0.036072   
C167     C      0.414020000000     0.291260000000     0.095560000000     0.049274   
C168     C      0.457420000000     0.387880000000     0.036480000000     0.0555828  
C169     C      0.644290000000     0.807110000000     0.642620000000    -0.107071   
C170     C      0.690160000000     0.838170000000     0.421150000000     0.0728709  
C171     C      0.648780000000     0.807460000000     0.420110000000     0.0726581  
C172     C      0.691060000000     0.835590000000     0.457150000000    -0.0928306  
C173     C      0.684530000000     0.838790000000     0.534130000000    -0.0355204  
C174     C      0.683850000000     0.837900000000     0.570460000000    -0.0344683  
C175     C      0.670140000000     0.817820000000     0.514230000000    -0.00627957 
C176     C      0.648890000000     0.804770000000     0.456220000000    -0.0925692  
C177     C      0.668440000000     0.816150000000     0.587820000000    -0.00952439 
C178     C      0.687600000000     0.825140000000     0.646720000000    -0.0977429  
C179     C      0.654150000000     0.795120000000     0.568260000000    -0.034828   
C180     C      0.685870000000     0.826410000000     0.682770000000     0.0736712  
C181     C      0.643020000000     0.808940000000     0.678850000000     0.105777   
C182     C      0.655160000000     0.795880000000     0.531860000000    -0.0357689  
C183     C      0.670120000000     0.819160000000     0.475400000000     0.0490996  
C184     C      0.666730000000     0.815820000000     0.626260000000     0.0561054  
C185     C      0.639950000000     0.844160000000     0.143910000000    -0.106108   
C186     C      0.687210000000     0.857780000000     0.922740000000     0.0727625  
C187     C      0.647050000000     0.850890000000     0.918020000000     0.0727822  
C188     C      0.686830000000     0.860600000000     0.958770000000    -0.0936831  
C189     C      0.682010000000     0.877580000000     0.032550000000    -0.0366187  
C190     C      0.680940000000     0.877320000000     0.068940000000    -0.0340331  
C191     C      0.664230000000     0.858120000000     0.013200000000    -0.0065208  
C192     C      0.645880000000     0.853080000000     0.954050000000    -0.0938419  
C193     C      0.662330000000     0.857310000000     0.086790000000    -0.00920435 
C194     C      0.683510000000     0.866460000000     0.144850000000    -0.0962916  
C195     C      0.644470000000     0.837920000000     0.067100000000    -0.0338567  
C196     C      0.682840000000     0.863990000000     0.180980000000     0.0735065  
C197     C      0.639730000000     0.841540000000     0.180190000000     0.105733   
C198     C      0.645300000000     0.838450000000     0.030750000000    -0.0363265  
C199     C      0.665810000000     0.857710000000     0.974810000000     0.0497679  
C200     C      0.661930000000     0.856150000000     0.125650000000     0.0551784  
C201     C      0.692490000000     0.758630000000     0.254830000000    -0.105773   
C202     C      0.799320000000     0.718830000000     0.169820000000     0.0720555  
C203     C      0.762300000000     0.681670000000     0.175010000000     0.0720674  
C204     C      0.788180000000     0.731580000000     0.181950000000    -0.0929887  
C205     C      0.763770000000     0.751330000000     0.229100000000    -0.0361178  
C206     C      0.752570000000     0.763720000000     0.242430000000    -0.034278   
C207     C      0.751630000000     0.732360000000     0.205030000000    -0.00629165 
C208     C      0.750580000000     0.693880000000     0.187130000000    -0.0927799  
C209     C      0.728950000000     0.757510000000     0.231980000000    -0.00922652 
C210     C      0.730320000000     0.795920000000     0.250750000000    -0.0963781  
C211     C      0.716800000000     0.738520000000     0.207920000000    -0.0342353  
C212     C      0.718920000000     0.808220000000     0.263490000000     0.0721868  
C213     C      0.681350000000     0.771320000000     0.267710000000     0.104274   
C214     C      0.727990000000     0.726090000000     0.194640000000    -0.0360897  
C215     C      0.763570000000     0.719120000000     0.191050000000     0.0490442  
C216     C      0.717100000000     0.770850000000     0.245980000000     0.0550324  
C217     C      0.543340000000     0.945280000000     0.410270000000    -0.105952   
C218     C      0.650240000000     0.902610000000     0.336860000000     0.0720627  
C219     C      0.611180000000     0.867580000000     0.334900000000     0.0727155  
C220     C      0.640260000000     0.916460000000     0.349090000000    -0.0927401  
C221     C      0.611220000000     0.942910000000     0.356060000000    -0.0360765  
C222     C      0.599930000000     0.955580000000     0.368170000000    -0.0343321  
C223     C      0.604150000000     0.919580000000     0.368710000000    -0.00632761 
C224     C      0.600660000000     0.880820000000     0.347260000000    -0.0932769  
C225     C      0.581400000000     0.945230000000     0.393310000000    -0.00913877 
C226     C      0.580810000000     0.983070000000     0.410380000000    -0.0959963  
C227     C      0.574820000000     0.922140000000     0.406560000000    -0.0344     
C228     C      0.568160000000     0.994730000000     0.420660000000     0.0716558  
C229     C      0.530940000000     0.957290000000     0.420630000000     0.104056   
C230     C      0.586010000000     0.909470000000     0.394360000000    -0.0360686  
C231     C      0.615210000000     0.905510000000     0.354790000000     0.049253   
C232     C      0.568430000000     0.958060000000     0.404960000000     0.0549196  
C233     C      0.999090000000     0.493830000000     0.819140000000    -0.101886   
C234     C      0.985550000000     0.520370000000     0.599560000000     0.0728815  
C235     C      0.025400000000     0.526270000000     0.599190000000     0.0722053  
C236     C      0.986020000000     0.521930000000     0.635910000000    -0.0908639  
C237     C      0.993470000000     0.533000000000     0.713220000000    -0.034695   
C238     C      0.991950000000     0.530330000000     0.749510000000    -0.0336621  
C239     C      0.006540000000     0.524740000000     0.693400000000    -0.00695424 
C240     C      0.026670000000     0.528430000000     0.635420000000    -0.0924469  
C241     C      0.003650000000     0.519550000000     0.766940000000    -0.00863109 
C242     C      0.999670000000     0.531530000000     0.828240000000    -0.0920151  
C243     C      0.017540000000     0.512260000000     0.747240000000    -0.034812   
C244     C      0.996770000000     0.526580000000     0.863990000000     0.0749307  
C245     C      0.996310000000     0.489420000000     0.854980000000     0.104698   
C246     C      0.018760000000     0.514580000000     0.711060000000    -0.0356051  
C247     C      0.006580000000     0.525530000000     0.654490000000     0.0476493  
C248     C      0.000630000000     0.514920000000     0.805220000000     0.051124   
C249     C      0.008940000000     0.495830000000     0.132370000000    -0.0937756  
C250     C      0.975780000000     0.493520000000     0.355720000000     0.072632   
C251     C      0.008530000000     0.485770000000     0.359520000000     0.0716852  
C252     C      0.975150000000     0.490950000000     0.319540000000    -0.0944454  
C253     C      0.989320000000     0.462670000000     0.248830000000    -0.0354621  
C254     C      0.988980000000     0.460760000000     0.212500000000    -0.0362638  
C255     C      0.991600000000     0.483580000000     0.264690000000    -0.00795777 
C256     C      0.008010000000     0.482510000000     0.323470000000    -0.0953843  
C257     C      0.991510000000     0.479980000000     0.191510000000    -0.00676911 
C258     C      0.970220000000     0.458200000000     0.136900000000    -0.093641   
C259     C      0.994250000000     0.501060000000     0.207400000000    -0.0358653  
C260     C      0.968260000000     0.457220000000     0.100450000000     0.0754493  
C261     C      0.006210000000     0.493340000000     0.096390000000     0.0667283  
C262     C      0.994030000000     0.502740000000     0.243680000000    -0.0354178  
C263     C      0.991470000000     0.485510000000     0.303080000000     0.0511395  
C264     C      0.990450000000     0.477820000000     0.153110000000     0.0484121  
C265     C      0.855630000000     0.585000000000     0.090200000000    -0.106462   
C266     C      0.967670000000     0.550430000000     0.013520000000     0.0718312  
C267     C      0.929720000000     0.514810000000     0.004790000000     0.0719143  
C268     C      0.956070000000     0.562840000000     0.025180000000    -0.0929917  
C269     C      0.928110000000     0.580110000000     0.068950000000    -0.035783   
C270     C      0.916070000000     0.591660000000     0.082380000000    -0.0346743  
C271     C      0.918070000000     0.563550000000     0.041180000000    -0.00636771 
C272     C      0.917540000000     0.526630000000     0.016610000000    -0.0925967  
C273     C      0.893600000000     0.586760000000     0.068630000000    -0.00927311 
C274     C      0.892550000000     0.623320000000     0.090520000000    -0.0964509  
C275     C      0.883580000000     0.570330000000     0.040820000000    -0.0345477  
C276     C      0.879700000000     0.634150000000     0.103310000000     0.0719967  
C277     C      0.843050000000     0.596140000000     0.103360000000     0.104285   
C278     C      0.895700000000     0.558940000000     0.027170000000    -0.0359157  
C279     C      0.930690000000     0.550910000000     0.027310000000     0.0488138  
C280     C      0.880470000000     0.598540000000     0.083370000000     0.0553073  
C281     C      0.342280000000     0.151230000000     0.789430000000    -0.0914175  
C282     C      0.369080000000     0.156710000000     0.019560000000     0.0729617  
C283     C      0.334360000000     0.161270000000     0.016060000000     0.0729424  
C284     C      0.369780000000     0.155330000000     0.983320000000    -0.0932199  
C285     C      0.377280000000     0.169900000000     0.907520000000    -0.0349813  
C286     C      0.378990000000     0.172300000000     0.871320000000    -0.035854   
C287     C      0.354510000000     0.158480000000     0.924080000000    -0.00671609 
C288     C      0.334750000000     0.160340000000     0.979770000000    -0.0929164  
C289     C      0.358000000000     0.163680000000     0.850680000000    -0.00562214 
C290     C      0.378760000000     0.190330000000     0.798740000000    -0.0924867  
C291     C      0.335200000000     0.151670000000     0.867150000000    -0.0356729  
C292     C      0.379650000000     0.195270000000     0.763010000000     0.0759278  
C293     C      0.344210000000     0.157340000000     0.754360000000     0.0674918  
C294     C      0.333480000000     0.148950000000     0.903330000000    -0.0352864  
C295     C      0.352790000000     0.157660000000     0.962820000000     0.0494709  
C296     C      0.359870000000     0.168230000000     0.812440000000     0.0468254  
C297     C      0.337830000000     0.160350000000     0.486710000000    -0.105075   
C298     C      0.337050000000     0.180100000000     0.260410000000     0.0727513  
C299     C      0.375740000000     0.183140000000     0.263040000000     0.0725617  
C300     C      0.335960000000     0.180350000000     0.296700000000    -0.0940134  
C301     C      0.373640000000     0.197860000000     0.375280000000    -0.0360366  
C302     C      0.371970000000     0.197740000000     0.411580000000    -0.0345568  
C303     C      0.353770000000     0.181270000000     0.355180000000    -0.00687076 
C304     C      0.375350000000     0.183700000000     0.299410000000    -0.093663   
C305     C      0.350500000000     0.180840000000     0.428500000000    -0.00946058 
C306     C      0.355270000000     0.203620000000     0.483500000000    -0.097126   
C307     C      0.330860000000     0.163880000000     0.408430000000    -0.0345913  
C308     C      0.351710000000     0.204070000000     0.519180000000     0.0751856  
C309     C      0.334270000000     0.161160000000     0.522630000000     0.101772   
C310     C      0.332440000000     0.164170000000     0.372140000000    -0.0360728  
C311     C      0.355120000000     0.181890000000     0.316620000000     0.0497885  
C312     C      0.348130000000     0.181610000000     0.466810000000     0.0554121  
C313     C      0.383260000000     0.124760000000     0.555400000000    -0.10457    
C314     C      0.491650000000     0.083880000000     0.482490000000     0.072865   
C315     C      0.453160000000     0.048060000000     0.480750000000     0.072635   
C316     C      0.480990000000     0.097280000000     0.493680000000    -0.0934056  
C317     C      0.453620000000     0.113750000000     0.542120000000    -0.036191   
C318     C      0.442220000000     0.125720000000     0.556220000000    -0.033999   
C319     C      0.444400000000     0.099540000000     0.512030000000    -0.00635432 
C320     C      0.441860000000     0.061030000000     0.491310000000    -0.0930074  
C321     C      0.421510000000     0.124110000000     0.540250000000    -0.00885521 
C322     C      0.421410000000     0.157500000000     0.575250000000    -0.0959228  
C323     C      0.412700000000     0.110330000000     0.509510000000    -0.0341993  
C324     C      0.408950000000     0.166690000000     0.593840000000     0.0736388  
C325     C      0.371070000000     0.134520000000     0.573810000000     0.103741   
C326     C      0.423890000000     0.098000000000     0.495770000000    -0.0363905  
C327     C      0.455850000000     0.085850000000     0.498380000000     0.0495028  
C328     C      0.408610000000     0.135800000000     0.556680000000     0.0545434  
C329     C      0.047560000000     0.447770000000     0.909210000000    -0.105296   
C330     C      0.099220000000     0.343530000000     0.863830000000     0.0722846  
C331     C      0.131090000000     0.382740000000     0.848590000000     0.0727602  
C332     C      0.085350000000     0.353390000000     0.876390000000    -0.0939223  
C333     C      0.075050000000     0.388690000000     0.922950000000    -0.0366176  
C334     C      0.063040000000     0.400560000000     0.935450000000    -0.0341466  
C335     C      0.080240000000     0.389290000000     0.887370000000    -0.00685968 
C336     C      0.117470000000     0.393090000000     0.860070000000    -0.0941963  
C337     C      0.055610000000     0.412890000000     0.912450000000    -0.0091533  
C338     C      0.028110000000     0.418160000000     0.954630000000    -0.0956543  
C339     C      0.060170000000     0.412610000000     0.876570000000    -0.0340691  
C340     C      0.017290000000     0.431270000000     0.966600000000     0.0753401  
C341     C      0.036190000000     0.460300000000     0.921460000000     0.104091   
C342     C      0.072640000000     0.401220000000     0.864270000000    -0.0368712  
C343     C      0.094490000000     0.378380000000     0.874430000000     0.0497736  
C344     C      0.043760000000     0.426500000000     0.925810000000     0.0544447  
C345     C      0.272100000000     0.212160000000     0.696380000000    -0.106587   
C346     C      0.228750000000     0.315710000000     0.781670000000     0.0720498  
C347     C      0.194320000000     0.276350000000     0.785530000000     0.0722156  
C348     C      0.242730000000     0.306060000000     0.768850000000    -0.0927387  
C349     C      0.263140000000     0.281860000000     0.722160000000    -0.0358774  
C350     C      0.275750000000     0.271250000000     0.707530000000    -0.0345026  
C351     C      0.246520000000     0.270310000000     0.749450000000    -0.00641587 
C352     C      0.207740000000     0.266130000000     0.772730000000    -0.0931348  
C353     C      0.271960000000     0.248790000000     0.719750000000    -0.00933885 
C354     C      0.309190000000     0.250300000000     0.694980000000    -0.0964538  
C355     C      0.255660000000     0.237440000000     0.747390000000    -0.03458    
C356     C      0.320850000000     0.238690000000     0.680620000000     0.071826   
C357     C      0.284070000000     0.200830000000     0.681700000000     0.104536   
C358     C      0.243140000000     0.248080000000     0.762100000000    -0.0359866  
C359     C      0.232240000000     0.280990000000     0.764020000000     0.0490486  
C360     C      0.284620000000     0.236980000000     0.703500000000     0.0552619  
C361     C      0.481500000000     0.460680000000     0.632380000000    -0.107582   
C362     C      0.478080000000     0.482300000000     0.858290000000     0.0731938  
C363     C      0.517770000000     0.487770000000     0.855260000000     0.073047   
C364     C      0.475440000000     0.479120000000     0.822280000000    -0.0939007  
C365     C      0.512060000000     0.498440000000     0.744000000000    -0.0360398  
C366     C      0.510210000000     0.498730000000     0.707820000000    -0.0343609  
C367     C      0.493120000000     0.480310000000     0.763780000000    -0.00688441 
C368     C      0.515860000000     0.485010000000     0.819130000000    -0.0941049  
C369     C      0.489530000000     0.480710000000     0.690680000000    -0.00998934 
C370     C      0.492750000000     0.502690000000     0.635390000000    -0.0980575  
C371     C      0.470750000000     0.462300000000     0.710360000000    -0.0344898  
C372     C      0.492470000000     0.503460000000     0.599160000000     0.0740639  
C373     C      0.481560000000     0.461920000000     0.595930000000     0.106342   
C374     C      0.472450000000     0.462220000000     0.746660000000    -0.0362195  
C375     C      0.494660000000     0.481020000000     0.802250000000     0.0501258  
C376     C      0.487740000000     0.481300000000     0.652320000000     0.0564971  
C377     C      0.514160000000     0.491590000000     0.314170000000    -0.107563   
C378     C      0.538990000000     0.525420000000     0.095850000000     0.0727229  
C379     C      0.499950000000     0.521670000000     0.097170000000     0.0729427  
C380     C      0.540470000000     0.527120000000     0.132140000000    -0.0938329  
C381     C      0.540190000000     0.539820000000     0.209950000000    -0.0363102  
C382     C      0.539790000000     0.537160000000     0.246180000000    -0.0344231  
C383     C      0.520470000000     0.523160000000     0.189680000000    -0.00698253 
C384     C      0.500710000000     0.522970000000     0.133420000000    -0.0945116  
C385     C      0.519910000000     0.517530000000     0.262450000000    -0.0100498  
C386     C      0.522910000000     0.532470000000     0.323330000000    -0.0976787  
C387     C      0.500230000000     0.500960000000     0.242130000000    -0.0343846  
C388     C      0.520090000000     0.527960000000     0.359060000000     0.0735594  
C389     C      0.511690000000     0.487490000000     0.350130000000     0.105408   
C390     C      0.500440000000     0.503830000000     0.206130000000    -0.0359778  
C391     C      0.520860000000     0.525120000000     0.151290000000     0.0501142  
C392     C      0.519460000000     0.514020000000     0.300530000000     0.0566242  
C393     C      0.856530000000     0.200560000000     0.985980000000    -0.0916125  
C394     C      0.868110000000     0.188090000000     0.754940000000     0.0727628  
C395     C      0.828990000000     0.183590000000     0.760960000000     0.0726576  
C396     C      0.871460000000     0.190250000000     0.791010000000    -0.0928226  
C397     C      0.867430000000     0.177790000000     0.867520000000    -0.0350323  
C398     C      0.868380000000     0.176600000000     0.903780000000    -0.0357426  
C399     C      0.855260000000     0.188590000000     0.851440000000    -0.0065443  
C400     C      0.831580000000     0.185310000000     0.797140000000    -0.0927915  
C401     C      0.856900000000     0.185860000000     0.925050000000    -0.00569347 
C402     C      0.853940000000     0.161340000000     0.978430000000    -0.0924649  
C403     C      0.845200000000     0.197150000000     0.909000000000    -0.0356138  
C404     C      0.851730000000     0.157780000000     0.014600000000     0.0753939  
C405     C      0.854230000000     0.195840000000     0.021560000000     0.0674367  
C406     C      0.844530000000     0.198630000000     0.872720000000    -0.0353667  
C407     C      0.852890000000     0.188390000000     0.812750000000     0.0492601  
C408     C      0.856180000000     0.182790000000     0.963620000000     0.0466632  
C409     C      0.814960000000     0.145130000000     0.287600000000    -0.0914305  
C410     C      0.802160000000     0.154670000000     0.518750000000     0.0722388  
C411     C      0.841200000000     0.158940000000     0.512890000000     0.0723423  
C412     C      0.799120000000     0.153130000000     0.482620000000    -0.0928659  
C413     C      0.803980000000     0.166970000000     0.406530000000    -0.0350244  
C414     C      0.803300000000     0.168710000000     0.370290000000    -0.0360311  
C415     C      0.815780000000     0.155680000000     0.422260000000    -0.00671842 
C416     C      0.838900000000     0.157810000000     0.476660000000    -0.0928701  
C417     C      0.814670000000     0.159480000000     0.348750000000    -0.00558135 
C418     C      0.818010000000     0.184510000000     0.295720000000    -0.0922345  
C419     C      0.826060000000     0.147760000000     0.364460000000    -0.0357902  
C420     C      0.820360000000     0.188300000000     0.259580000000     0.0754317  
C421     C      0.817410000000     0.150080000000     0.252110000000     0.0673628  
C422     C      0.826460000000     0.145750000000     0.400680000000    -0.0353614  
C423     C      0.817800000000     0.155200000000     0.460940000000     0.0490257  
C424     C      0.815500000000     0.162860000000     0.310230000000     0.0465002  
C425     C      0.154110000000     0.351430000000     0.663090000000    -0.106222   
C426     C      0.144020000000     0.302790000000     0.442850000000     0.0725446  
C427     C      0.151040000000     0.342930000000     0.437860000000     0.0725754  
C428     C      0.140930000000     0.303180000000     0.478830000000    -0.0934818  
C429     C      0.123280000000     0.307790000000     0.552210000000    -0.0366189  
C430     C      0.122960000000     0.309140000000     0.588570000000    -0.0340542  
C431     C      0.142780000000     0.325760000000     0.533090000000    -0.00653394 
C432     C      0.148530000000     0.344090000000     0.473810000000    -0.0938855  
C433     C      0.142410000000     0.328240000000     0.606630000000    -0.00915768 
C434     C      0.132870000000     0.307940000000     0.665460000000    -0.0959475  
C435     C      0.161900000000     0.346170000000     0.587180000000    -0.0338958  
C436     C      0.135130000000     0.309250000000     0.701660000000     0.0734912  
C437     C      0.156540000000     0.352290000000     0.699420000000     0.106295   
C438     C      0.161960000000     0.345050000000     0.550880000000    -0.0363689  
C439     C      0.143670000000     0.324170000000     0.494710000000     0.0495874  
C440     C      0.142910000000     0.329180000000     0.645510000000     0.0550932  
C441     C      0.176490000000     0.305100000000     0.162380000000    -0.105797   
C442     C      0.196270000000     0.348690000000     0.938180000000     0.0725116  
C443     C      0.166080000000     0.307140000000     0.941230000000     0.0724464  
C444     C      0.199840000000     0.349300000000     0.974160000000    -0.0938812  
C445     C      0.185390000000     0.346340000000     0.051350000000    -0.0363216  
C446     C      0.185280000000     0.345980000000     0.087710000000    -0.0338854  
C447     C      0.188240000000     0.329090000000     0.032450000000    -0.00660509 
C448     C      0.169570000000     0.307000000000     0.977130000000    -0.0936886  
C449     C      0.188490000000     0.328620000000     0.106110000000    -0.0092221  
C450     C      0.194380000000     0.348340000000     0.164820000000    -0.0964201  
C451     C      0.192160000000     0.311840000000     0.086950000000    -0.0341641  
C452     C      0.190540000000     0.346660000000     0.200690000000     0.0734816  
C453     C      0.173170000000     0.303850000000     0.198600000000     0.104952   
C454     C      0.191770000000     0.311920000000     0.050520000000    -0.0366402  
C455     C      0.186230000000     0.328360000000     0.994020000000     0.0496182  
C456     C      0.186850000000     0.327390000000     0.144940000000     0.0550509  
C457     C      0.056160000000     0.254520000000     0.275350000000    -0.106558   
C458     C      0.919690000000     0.229100000000     0.170760000000     0.0725435  
C459     C      0.915700000000     0.190260000000     0.177690000000     0.0722359  
C460     C      0.943070000000     0.240100000000     0.184760000000    -0.0938737  
C461     C      0.984630000000     0.256610000000     0.235920000000    -0.0336706  
C462     C      0.007380000000     0.267020000000     0.251930000000    -0.0367663  
C463     C      0.977270000000     0.237170000000     0.212540000000    -0.00783749 
C464     C      0.938990000000     0.200670000000     0.191900000000    -0.0937     
C465     C      0.023260000000     0.258180000000     0.245040000000    -0.00823325 
C466     C      0.061920000000     0.294230000000     0.265110000000    -0.0966514  
C467     C      0.015950000000     0.238800000000     0.221610000000    -0.0367655  
C468     C      0.084960000000     0.304210000000     0.279910000000     0.0726617  
C469     C      0.079300000000     0.264890000000     0.290410000000     0.105281   
C470     C      0.993230000000     0.228440000000     0.205510000000    -0.0337433  
C471     C      0.952890000000     0.225860000000     0.195990000000     0.0499679  
C472     C      0.047410000000     0.269140000000     0.262090000000     0.055241   
C473     C      0.393440000000     0.417300000000     0.436680000000    -0.106776   
C474     C      0.248760000000     0.382100000000     0.350110000000     0.0726309  
C475     C      0.246570000000     0.344000000000     0.356360000000     0.0724973  
C476     C      0.272730000000     0.394000000000     0.361850000000    -0.0935588  
C477     C      0.327000000000     0.414780000000     0.370100000000    -0.0361039  
C478     C      0.350570000000     0.426740000000     0.383510000000    -0.0344071  
C479     C      0.309080000000     0.392980000000     0.385050000000    -0.00653047 
C480     C      0.270520000000     0.355330000000     0.368270000000    -0.0933568  
C481     C      0.356770000000     0.417170000000     0.412190000000    -0.00947094 
C482     C      0.394260000000     0.455200000000     0.430230000000    -0.0971668  
C483     C      0.338900000000     0.395270000000     0.427000000000    -0.0343099  
C484     C      0.417980000000     0.467130000000     0.442820000000     0.072799   
C485     C      0.417290000000     0.429650000000     0.449400000000     0.104672   
C486     C      0.315320000000     0.383310000000     0.413580000000    -0.0360272  
C487     C      0.283860000000     0.380610000000     0.371380000000     0.0494327  
C488     C      0.381810000000     0.430040000000     0.426540000000     0.0555694  
C489     C      0.540490000000     0.036140000000     0.609720000000    -0.105824   
C490     C      0.520930000000     0.992820000000     0.833640000000     0.0728847  
C491     C      0.529870000000     0.033660000000     0.829610000000     0.0731063  
C492     C      0.523250000000     0.991840000000     0.797570000000    -0.0940863  
C493     C      0.508780000000     0.994660000000     0.720670000000    -0.0362542  
C494     C      0.508260000000     0.995190000000     0.684320000000    -0.0337632  
C495     C      0.529650000000     0.011160000000     0.738910000000    -0.0066352  
C496     C      0.532940000000     0.033490000000     0.793650000000    -0.0940415  
C497     C      0.528830000000     0.011960000000     0.665350000000    -0.00908638 
C498     C      0.512720000000     0.993330000000     0.606520000000    -0.0961727  
C499     C      0.550080000000     0.027780000000     0.683890000000    -0.0339862  
C500     C      0.510260000000     0.995700000000     0.570870000000     0.0738744  
C501     C      0.538120000000     0.038040000000     0.573720000000     0.105272   
C502     C      0.550370000000     0.027600000000     0.720300000000    -0.0367089  
C503     C      0.529110000000     0.012280000000     0.777270000000     0.0501305  
C504     C      0.527650000000     0.013730000000     0.626670000000     0.0553111  
C505     C      0.506150000000     0.043810000000     0.293050000000    -0.1062     
C506     C      0.486730000000     0.992230000000     0.073910000000     0.0726326  
C507     C      0.494020000000     0.032450000000     0.068300000000     0.0728223  
C508     C      0.484460000000     0.993160000000     0.109990000000    -0.0941612  
C509     C      0.468430000000     0.000590000000     0.183950000000    -0.0366407  
C510     C      0.469340000000     0.002500000000     0.220270000000    -0.033989   
C511     C      0.488350000000     0.016790000000     0.163780000000    -0.00681067 
C512     C      0.492430000000     0.034180000000     0.104320000000    -0.0944239  
C513     C      0.490450000000     0.020300000000     0.237180000000    -0.00929484 
C514     C      0.480150000000     0.000650000000     0.296360000000    -0.0964389  
C515     C      0.510360000000     0.036470000000     0.216610000000    -0.0338197  
C516     C      0.482920000000     0.002050000000     0.332450000000     0.073832   
C517     C      0.509070000000     0.044710000000     0.329300000000     0.10601    
C518     C      0.509200000000     0.034890000000     0.180340000000    -0.0364163  
C519     C      0.487910000000     0.014510000000     0.125510000000     0.0500438  
C520     C      0.492110000000     0.021610000000     0.275990000000     0.0553224  
C521     C      0.730910000000     0.143050000000     0.083050000000    -0.106862   
C522     C      0.588770000000     0.033660000000     0.990080000000     0.0728621  
C523     C      0.590270000000     0.071500000000     0.984910000000     0.072437   
C524     C      0.612100000000     0.045000000000     0.004260000000    -0.0934251  
C525     C      0.653920000000     0.071500000000     0.054630000000    -0.0359575  
C526     C      0.676620000000     0.083110000000     0.070850000000    -0.034346   
C527     C      0.649010000000     0.082360000000     0.026210000000    -0.00647743 
C528     C      0.613620000000     0.083420000000     0.999070000000    -0.0934029  
C529     C      0.694910000000     0.105890000000     0.059110000000    -0.00953506 
C530     C      0.730570000000     0.105250000000     0.085560000000    -0.0970364  
C531     C      0.690030000000     0.116750000000     0.030700000000    -0.0343788  
C532     C      0.753670000000     0.117230000000     0.100330000000     0.072244   
C533     C      0.754080000000     0.154770000000     0.098180000000     0.104413   
C534     C      0.667350000000     0.105110000000     0.014410000000    -0.0360332  
C535     C      0.624700000000     0.070140000000     0.009400000000     0.0495335  
C536     C      0.719080000000     0.118200000000     0.076190000000     0.0556899  
C537     C      0.179310000000     0.872190000000     0.646920000000    -0.107201   
C538     C      0.203620000000     0.851280000000     0.422870000000     0.0724212  
C539     C      0.173250000000     0.862480000000     0.421640000000     0.0730832  
C540     C      0.205450000000     0.853960000000     0.459070000000    -0.0925241  
C541     C      0.212270000000     0.868640000000     0.535090000000    -0.0357713  
C542     C      0.211920000000     0.868370000000     0.571540000000    -0.0347491  
C543     C      0.190930000000     0.862010000000     0.515950000000    -0.00626612 
C544     C      0.175000000000     0.865860000000     0.457650000000    -0.0929364  
C545     C      0.190350000000     0.861930000000     0.589590000000    -0.00958963 
C546     C      0.197290000000     0.846820000000     0.645990000000    -0.0972228  
C547     C      0.169170000000     0.855760000000     0.570670000000    -0.0345301  
C548     C      0.193930000000     0.843770000000     0.681920000000     0.0732782  
C549     C      0.176420000000     0.869200000000     0.683100000000     0.105031   
C550     C      0.169380000000     0.855570000000     0.534340000000    -0.0356145  
C551     C      0.190740000000     0.860940000000     0.477100000000     0.0491011  
C552     C      0.189490000000     0.860740000000     0.628080000000     0.0560295  
C553     C      0.142590000000     0.826110000000     0.962210000000    -0.107018   
C554     C      0.177840000000     0.813600000000     0.182160000000     0.0722069  
C555     C      0.145650000000     0.822230000000     0.182980000000     0.0723482  
C556     C      0.175260000000     0.809870000000     0.146180000000    -0.0927415  
C557     C      0.177360000000     0.819130000000     0.068820000000    -0.0355854  
C558     C      0.176130000000     0.819060000000     0.032490000000    -0.0346274  
C559     C      0.156310000000     0.811340000000     0.089130000000    -0.00642516 
C560     C      0.142870000000     0.819060000000     0.146970000000    -0.0929129  
C561     C      0.153920000000     0.811600000000     0.015610000000    -0.00953833 
C562     C      0.163650000000     0.803820000000     0.955640000000    -0.0975528  
C563     C      0.132800000000     0.803400000000     0.035630000000    -0.0349213  
C564     C      0.164150000000     0.807290000000     0.919720000000     0.0735795  
C565     C      0.143630000000     0.829710000000     0.926100000000     0.106111   
C566     C      0.133930000000     0.803030000000     0.071970000000    -0.0358635  
C567     C      0.157940000000     0.813080000000     0.127900000000     0.0489211  
C568     C      0.153140000000     0.813600000000     0.977290000000     0.0560239  
C569     C      0.399100000000     0.941720000000     0.906080000000    -0.106808   
C570     C      0.249750000000     0.902490000000     0.838930000000     0.0725176  
C571     C      0.254300000000     0.867930000000     0.832340000000     0.0726725  
C572     C      0.273630000000     0.916080000000     0.851000000000    -0.0933628  
C573     C      0.329280000000     0.942420000000     0.856970000000    -0.0360472  
C574     C      0.353290000000     0.954530000000     0.868870000000    -0.0341136  
C575     C      0.312990000000     0.918790000000     0.868450000000    -0.00658699 
C576     C      0.278100000000     0.880900000000     0.844510000000    -0.0938982  
C577     C      0.361420000000     0.943260000000     0.892610000000    -0.00941726 
C578     C      0.400560000000     0.980000000000     0.910380000000    -0.0964593  
C579     C      0.344820000000     0.919950000000     0.904960000000    -0.0343797  
C580     C      0.424940000000     0.990720000000     0.920070000000     0.07243    
C581     C      0.423560000000     0.952790000000     0.915740000000     0.105135   
C582     C      0.320930000000     0.907840000000     0.892940000000    -0.036185   
C583     C      0.287960000000     0.905180000000     0.854370000000     0.0496408  
C584     C      0.387310000000     0.955200000000     0.903400000000     0.0556741  
C585     C      0.821570000000     0.680760000000     0.796120000000    -0.105881   
C586     C      0.789320000000     0.639240000000     0.020000000000     0.0725413  
C587     C      0.822290000000     0.679550000000     0.016480000000     0.0730152  
C588     C      0.786940000000     0.638170000000     0.983740000000    -0.0937936  
C589     C      0.804830000000     0.639040000000     0.908140000000    -0.0362534  
C590     C      0.806870000000     0.639220000000     0.871900000000    -0.033797   
C591     C      0.801920000000     0.656930000000     0.925110000000    -0.00663584 
C592     C      0.820000000000     0.679300000000     0.980300000000    -0.093867   
C593     C      0.805580000000     0.657040000000     0.851700000000    -0.00921107 
C594     C      0.802740000000     0.637430000000     0.793540000000    -0.0961866  
C595     C      0.801580000000     0.674310000000     0.868870000000    -0.0340551  
C596     C      0.808230000000     0.639220000000     0.758100000000     0.0733545  
C597     C      0.826550000000     0.682130000000     0.760380000000     0.105229   
C598     C      0.800090000000     0.674430000000     0.905190000000    -0.0367497  
C599     C      0.802580000000     0.658260000000     0.963560000000     0.0498219  
C600     C      0.809630000000     0.658350000000     0.813240000000     0.055078   
C601     C      0.862940000000     0.683840000000     0.480580000000    -0.106069   
C602     C      0.820400000000     0.635810000000     0.260860000000     0.0723424  
C603     C      0.854530000000     0.675340000000     0.255890000000     0.0725479  
C604     C      0.824080000000     0.635900000000     0.296780000000    -0.0935947  
C605     C      0.847690000000     0.639860000000     0.369520000000    -0.0364962  
C606     C      0.850110000000     0.641240000000     0.405820000000    -0.0339626  
C607     C      0.845830000000     0.657840000000     0.350930000000    -0.00655384 
C608     C      0.858400000000     0.676220000000     0.291780000000    -0.0939894  
C609     C      0.850180000000     0.660380000000     0.424350000000    -0.00900231 
C610     C      0.841240000000     0.640360000000     0.483410000000    -0.0957317  
C611     C      0.848140000000     0.678260000000     0.405400000000    -0.0338646  
C612     C      0.841250000000     0.641840000000     0.519680000000     0.0737756  
C613     C      0.862290000000     0.684860000000     0.516980000000     0.106418   
C614     C      0.846260000000     0.677130000000     0.369150000000    -0.036316   
C615     C      0.842970000000     0.656460000000     0.312620000000     0.0496809  
C616     C      0.851650000000     0.661500000000     0.463210000000     0.0551505  
C617     C      0.608660000000     0.572120000000     0.516850000000    -0.106672   
C618     C      0.751380000000     0.605690000000     0.608670000000     0.0727747  
C619     C      0.754540000000     0.644190000000     0.602030000000     0.0726278  
C620     C      0.727560000000     0.594230000000     0.596420000000    -0.093817   
C621     C      0.673660000000     0.574290000000     0.586560000000    -0.036076   
C622     C      0.650380000000     0.562480000000     0.572200000000    -0.0344601  
C623     C      0.691970000000     0.596070000000     0.572050000000    -0.00660983 
C624     C      0.730720000000     0.633310000000     0.589600000000    -0.0934992  
C625     C      0.644840000000     0.572170000000     0.543000000000    -0.00943692 
C626     C      0.607810000000     0.534230000000     0.523550000000    -0.0969827  
C627     C      0.663050000000     0.594110000000     0.528730000000    -0.03436    
C628     C      0.584300000000     0.522320000000     0.510180000000     0.0730528  
C629     C      0.585020000000     0.559810000000     0.503370000000     0.105291   
C630     C      0.686360000000     0.605920000000     0.543090000000    -0.0358507  
C631     C      0.716990000000     0.608040000000     0.586410000000     0.0496216  
C632     C      0.620130000000     0.559360000000     0.527580000000     0.0557821  
C633     C      0.942780000000     0.694250000000     0.684330000000    -0.106522   
C634     C      0.084550000000     0.807680000000     0.773720000000     0.0722846  
C635     C      0.089500000000     0.773410000000     0.766690000000     0.0724629  
C636     C      0.060680000000     0.794510000000     0.761750000000    -0.0932711  
C637     C      0.007100000000     0.759090000000     0.752180000000    -0.0384031  
C638     C      0.983730000000     0.746730000000     0.738150000000    -0.0320047  
C639     C      0.025870000000     0.756290000000     0.737770000000    -0.00519159 
C640     C      0.065660000000     0.759680000000     0.754660000000    -0.0930099  
C641     C      0.978540000000     0.731220000000     0.709450000000    -0.0105931  
C642     C      0.941070000000     0.730940000000     0.689010000000    -0.0970795  
C643     C      0.997180000000     0.728090000000     0.695350000000    -0.0319671  
C644     C      0.917670000000     0.718840000000     0.675310000000     0.0736506  
C645     C      0.919180000000     0.682370000000     0.670590000000     0.105396   
C646     C      0.020600000000     0.740520000000     0.709320000000    -0.0382366  
C647     C      0.050980000000     0.770250000000     0.751760000000     0.0487629  
C648     C      0.953800000000     0.718600000000     0.694100000000     0.0565412  
Cu1      Cu     0.837310000000     0.682620000000     0.636120000000     0.848245   
Cu2      Cu     0.833670000000     0.642400000000     0.641690000000     0.845603   
Cu3      Cu     0.166710000000     0.855580000000     0.807100000000     0.847586   
Cu4      Cu     0.172340000000     0.820330000000     0.798760000000     0.846925   
Cu5      Cu     0.508390000000     0.032030000000     0.947860000000     0.846284   
Cu6      Cu     0.506520000000     0.992640000000     0.954740000000     0.848586   
Cu7      Cu     0.166140000000     0.343460000000     0.317250000000     0.847099   
Cu8      Cu     0.163670000000     0.303780000000     0.323450000000     0.846151   
Cu9      Cu     0.837990000000     0.193660000000     0.134390000000     0.851421   
Cu10     Cu     0.834060000000     0.152680000000     0.139510000000     0.850783   
Cu11     Cu     0.499380000000     0.513020000000     0.477770000000     0.846923   
Cu12     Cu     0.503070000000     0.476430000000     0.474410000000     0.851739   
Cu13     Cu     0.145750000000     0.308940000000     0.822990000000     0.844193   
Cu14     Cu     0.181030000000     0.350140000000     0.817680000000     0.845698   
Cu15     Cu     0.329840000000     0.163400000000     0.642790000000     0.861399   
Cu16     Cu     0.366530000000     0.204240000000     0.639260000000     0.846602   
Cu17     Cu     0.969110000000     0.470790000000     0.974540000000     0.846341   
Cu18     Cu     0.008780000000     0.508430000000     0.983120000000     0.846042   
Cu19     Cu     0.644730000000     0.819590000000     0.299210000000     0.846866   
Cu20     Cu     0.685680000000     0.855400000000     0.302210000000     0.842748   
Cu21     Cu     0.801710000000     0.638230000000     0.141580000000     0.844443   
Cu22     Cu     0.840010000000     0.676960000000     0.135540000000     0.845287   
Cu23     Cu     0.491000000000     0.001810000000     0.454050000000     0.847431   
Cu24     Cu     0.530080000000     0.039780000000     0.448930000000     0.844486   
Cu25     Cu     0.373830000000     0.171130000000     0.141090000000     0.841295   
Cu26     Cu     0.335040000000     0.170990000000     0.138180000000     0.852392   
Cu27     Cu     0.529060000000     0.505690000000     0.975800000000     0.844751   
Cu28     Cu     0.489570000000     0.504140000000     0.977140000000     0.850022   
Cu29     Cu     0.193620000000     0.835180000000     0.301580000000     0.842598   
Cu30     Cu     0.157410000000     0.839830000000     0.303160000000     0.851077   
Cu31     Cu     0.017710000000     0.506160000000     0.479400000000     0.843121   
Cu32     Cu     0.979510000000     0.507190000000     0.477490000000     0.847764   
Cu33     Cu     0.854340000000     0.171150000000     0.634330000000     0.847507   
Cu34     Cu     0.815540000000     0.170770000000     0.639590000000     0.844185   
Cu35     Cu     0.685510000000     0.837170000000     0.803780000000     0.845046   
Cu36     Cu     0.646160000000     0.835520000000     0.797460000000     0.849183   
H1       H      0.736210000000     0.910450000000     0.772960000000     0.0251332  
H2       H      0.766040000000     0.097680000000     0.666620000000     0.0262237  
H3       H      0.769490000000     0.992260000000     0.763980000000     0.0374425  
H4       H      0.730500000000     0.014270000000     0.669820000000     0.0374185  
H5       H      0.744440000000     0.056870000000     0.688430000000     0.0535189  
H6       H      0.709250000000     0.973420000000     0.694160000000     0.0377659  
H7       H      0.809450000000     0.052320000000     0.682080000000     0.0578268  
H8       H      0.757170000000     0.951340000000     0.750400000000     0.0521146  
H9       H      0.688970000000     0.950540000000     0.744960000000     0.0526057  
H10      H      0.790850000000     0.032870000000     0.739040000000     0.0380136  
H11      H      0.668400000000     0.909260000000     0.766540000000     0.0258799  
H12      H      0.844900000000     0.091850000000     0.621150000000     0.038519   
H13      H      0.836570000000     0.244720000000     0.612490000000     0.0253274  
H14      H      0.994040000000     0.433730000000     0.510820000000     0.026342   
H15      H      0.884030000000     0.327390000000     0.605700000000     0.0376457  
H16      H      0.946540000000     0.350760000000     0.513650000000     0.0373448  
H17      H      0.974690000000     0.392960000000     0.532780000000     0.0536588  
H18      H      0.926930000000     0.309750000000     0.537260000000     0.0377534  
H19      H      0.905240000000     0.388590000000     0.525370000000     0.0578851  
H20      H      0.856010000000     0.286030000000     0.591190000000     0.0522293  
H21      H      0.924530000000     0.287370000000     0.588620000000     0.0525539  
H22      H      0.903410000000     0.368300000000     0.581580000000     0.0380513  
H23      H      0.904440000000     0.245860000000     0.608910000000     0.0255844  
H24      H      0.909630000000     0.427870000000     0.463910000000     0.0386834  
H25      H      0.004070000000     0.581280000000     0.448200000000     0.0253219  
H26      H      0.166540000000     0.763380000000     0.337610000000     0.0259422  
H27      H      0.054770000000     0.663640000000     0.439030000000     0.0377265  
H28      H      0.116160000000     0.681530000000     0.346940000000     0.0368879  
H29      H      0.145680000000     0.723380000000     0.362110000000     0.0532321  
H30      H      0.095340000000     0.641380000000     0.373420000000     0.0375441  
H31      H      0.078210000000     0.723350000000     0.356000000000     0.0577627  
H32      H      0.025200000000     0.622070000000     0.424960000000     0.0523062  
H33      H      0.092290000000     0.620580000000     0.427780000000     0.0522883  
H34      H      0.075550000000     0.703790000000     0.412380000000     0.0379282  
H35      H      0.070530000000     0.579570000000     0.450320000000     0.0252258  
H36      H      0.084030000000     0.761450000000     0.291690000000     0.0381591  
H37      H      0.508790000000     0.575950000000     0.941230000000     0.0253465  
H38      H      0.664540000000     0.766540000000     0.841430000000     0.0260917  
H39      H      0.553230000000     0.658250000000     0.930250000000     0.0374358  
H40      H      0.620770000000     0.682890000000     0.846180000000     0.0372301  
H41      H      0.646110000000     0.726220000000     0.865190000000     0.0535262  
H42      H      0.601710000000     0.642430000000     0.871670000000     0.0374856  
H43      H      0.575400000000     0.716370000000     0.844310000000     0.0578632  
H44      H      0.527610000000     0.616530000000     0.917400000000     0.0521317  
H45      H      0.597530000000     0.621050000000     0.924300000000     0.052241   
H46      H      0.571950000000     0.698470000000     0.903970000000     0.0379208  
H47      H      0.578030000000     0.580130000000     0.946890000000     0.0253137  
H48      H      0.581990000000     0.752820000000     0.776910000000     0.037137   
H49      H      0.185680000000     0.913360000000     0.268990000000     0.0252825  
H50      H      0.350860000000     0.098310000000     0.171180000000     0.0260992  
H51      H      0.237980000000     0.994170000000     0.262560000000     0.0372239  
H52      H      0.302680000000     0.013720000000     0.175260000000     0.037661   
H53      H      0.331150000000     0.057560000000     0.193960000000     0.0537467  
H54      H      0.280840000000     0.972960000000     0.200080000000     0.0376595  
H55      H      0.261570000000     0.051260000000     0.176170000000     0.0581653  
H56      H      0.208760000000     0.954160000000     0.246830000000     0.0521936  
H57      H      0.273820000000     0.948910000000     0.251320000000     0.0522703  
H58      H      0.259320000000     0.034520000000     0.236950000000     0.0374667  
H59      H      0.249930000000     0.907620000000     0.272390000000     0.0252423  
H60      H      0.267280000000     0.106100000000     0.169750000000     0.0392608  
H61      H      0.357820000000     0.245360000000     0.115360000000     0.0255138  
H62      H      0.511000000000     0.435520000000     0.011960000000     0.0261612  
H63      H      0.405310000000     0.327910000000     0.113130000000     0.0375822  
H64      H      0.468490000000     0.352380000000     0.021880000000     0.0373882  
H65      H      0.494600000000     0.395680000000     0.036790000000     0.0534065  
H66      H      0.450290000000     0.311750000000     0.046840000000     0.0378207  
H67      H      0.422840000000     0.385970000000     0.030890000000     0.0579434  
H68      H      0.377960000000     0.286900000000     0.095610000000     0.0525087  
H69      H      0.446610000000     0.288570000000     0.099100000000     0.0522978  
H70      H      0.423330000000     0.368380000000     0.087910000000     0.0372558  
H71      H      0.425740000000     0.246590000000     0.118190000000     0.025234   
H72      H      0.426360000000     0.440080000000     0.027090000000     0.0392474  
H73      H      0.631820000000     0.796280000000     0.406520000000     0.0254308  
H74      H      0.702730000000     0.834420000000     0.697370000000     0.0248389  
H75      H      0.644170000000     0.779230000000     0.517620000000     0.0370515  
H76      H      0.694830000000     0.854420000000     0.585030000000     0.0384209  
H77      H      0.705260000000     0.831740000000     0.634880000000     0.0540217  
H78      H      0.695880000000     0.856150000000     0.521750000000     0.037512   
H79      H      0.627820000000     0.799320000000     0.627150000000     0.0586268  
H80      H      0.632120000000     0.792020000000     0.468960000000     0.0520132  
H81      H      0.708120000000     0.846630000000     0.470510000000     0.0519515  
H82      H      0.642250000000     0.778090000000     0.581160000000     0.0373851  
H83      H      0.706690000000     0.851430000000     0.408280000000     0.0251132  
H84      H      0.605830000000     0.771730000000     0.704920000000     0.0362631  
H85      H      0.631070000000     0.846960000000     0.902930000000     0.0259263  
H86      H      0.700170000000     0.871730000000     0.194340000000     0.0246507  
H87      H      0.631540000000     0.823080000000     0.016350000000     0.0388509  
H88      H      0.694740000000     0.892830000000     0.083000000000     0.0364783  
H89      H      0.701020000000     0.875730000000     0.132120000000     0.0527019  
H90      H      0.696700000000     0.893030000000     0.019490000000     0.0381901  
H91      H      0.622870000000     0.837030000000     0.130090000000     0.0573473  
H92      H      0.629380000000     0.850920000000     0.965640000000     0.0533397  
H93      H      0.702580000000     0.864140000000     0.974120000000     0.0531739  
H94      H      0.630160000000     0.821940000000     0.079660000000     0.0369019  
H95      H      0.703630000000     0.859540000000     0.911410000000     0.0251116  
H96      H      0.601810000000     0.803370000000     0.202700000000     0.0403218  
H97      H      0.751600000000     0.662110000000     0.172820000000     0.0256092  
H98      H      0.730160000000     0.827720000000     0.266000000000     0.0257211  
H99      H      0.718250000000     0.711790000000     0.175800000000     0.037773   
H100     H      0.762310000000     0.777970000000     0.261340000000     0.0370632  
H101     H      0.749380000000     0.806200000000     0.244010000000     0.0529099  
H102     H      0.781820000000     0.756350000000     0.238120000000     0.0377021  
H103     H      0.681970000000     0.739070000000     0.252350000000     0.0576164  
H104     H      0.731570000000     0.683480000000     0.194110000000     0.0525169  
H105     H      0.798830000000     0.751140000000     0.184020000000     0.0522072  
H106     H      0.698740000000     0.733500000000     0.198890000000     0.0371794  
H107     H      0.818430000000     0.729240000000     0.163300000000     0.0253187  
H108     H      0.636030000000     0.750650000000     0.252020000000     0.0392775  
H109     H      0.599150000000     0.848480000000     0.329610000000     0.0256977  
H110     H      0.578870000000     0.014160000000     0.424510000000     0.0260988  
H111     H      0.580490000000     0.891730000000     0.405150000000     0.037991   
H112     H      0.605270000000     0.973200000000     0.357100000000     0.0371517  
H113     H      0.600300000000     0.993680000000     0.407000000000     0.0530255  
H114     H      0.625000000000     0.951110000000     0.336070000000     0.0378493  
H115     H      0.533190000000     0.925910000000     0.405600000000     0.0574255  
H116     H      0.581160000000     0.871720000000     0.350690000000     0.052605   
H117     H      0.652180000000     0.935500000000     0.354710000000     0.0524637  
H118     H      0.561000000000     0.913830000000     0.426480000000     0.0374995  
H119     H      0.669740000000     0.911710000000     0.333250000000     0.025377   
H120     H      0.488120000000     0.937410000000     0.394060000000     0.038173   
H121     H      0.041190000000     0.528080000000     0.585690000000     0.0250911  
H122     H      0.996040000000     0.539710000000     0.881210000000     0.0195502  
H123     H      0.028770000000     0.507690000000     0.696950000000     0.0370374  
H124     H      0.981020000000     0.536100000000     0.763740000000     0.0373674  
H125     H      0.001480000000     0.548390000000     0.818850000000     0.0515635  
H126     H      0.984170000000     0.541330000000     0.700750000000     0.0372133  
H127     H      0.000350000000     0.480840000000     0.802340000000     0.0537164  
H128     H      0.043290000000     0.532030000000     0.648330000000     0.0517397  
H129     H      0.969910000000     0.519340000000     0.649270000000     0.052185   
H130     H      0.027330000000     0.504450000000     0.759700000000     0.0361472  
H131     H      0.969040000000     0.516950000000     0.586420000000     0.0259208  
H132     H      0.997360000000     0.449040000000     0.846950000000     0.0333875  
H133     H      0.021940000000     0.483740000000     0.374320000000     0.0249726  
H134     H      0.952360000000     0.442620000000     0.088080000000     0.0216224  
H135     H      0.995960000000     0.519100000000     0.255370000000     0.0384683  
H136     H      0.986850000000     0.444340000000     0.200770000000     0.0380465  
H137     H      0.955710000000     0.444260000000     0.152350000000     0.0530904  
H138     H      0.987380000000     0.447660000000     0.264550000000     0.0380789  
H139     H      0.024650000000     0.511220000000     0.143790000000     0.0507826  
H140     H      0.020900000000     0.478300000000     0.311520000000     0.0530027  
H141     H      0.961980000000     0.493200000000     0.304510000000     0.0534643  
H142     H      0.996040000000     0.516040000000     0.191720000000     0.0383368  
H143     H      0.962930000000     0.497910000000     0.367410000000     0.0251605  
H144     H      0.044240000000     0.534840000000     0.064720000000     0.00412437 
H145     H      0.918790000000     0.495950000000     0.997280000000     0.0253637  
H146     H      0.890080000000     0.653520000000     0.107940000000     0.0261951  
H147     H      0.887610000000     0.546690000000     0.005400000000     0.0374288  
H148     H      0.924110000000     0.604030000000     0.104060000000     0.0373765  
H149     H      0.911820000000     0.634470000000     0.085550000000     0.0535622  
H150     H      0.945070000000     0.583810000000     0.080850000000     0.0373239  
H151     H      0.845990000000     0.565620000000     0.085440000000     0.0578137  
H152     H      0.897920000000     0.516520000000     0.018130000000     0.0520868  
H153     H      0.967030000000     0.581730000000     0.032400000000     0.0520045  
H154     H      0.866440000000     0.566470000000     0.029340000000     0.0378419  
H155     H      0.987340000000     0.560380000000     0.012660000000     0.0247636  
H156     H      0.808160000000     0.567710000000     0.143900000000     0.0388283  
H157     H      0.320340000000     0.163830000000     0.027930000000     0.0255585  
H158     H      0.393800000000     0.212430000000     0.752840000000     0.0215348  
H159     H      0.315610000000     0.139640000000     0.915010000000     0.0369756  
H160     H      0.396860000000     0.181230000000     0.859590000000     0.0371985  
H161     H      0.392270000000     0.204070000000     0.815600000000     0.0522187  
H162     H      0.393920000000     0.177710000000     0.922520000000     0.037159   
H163     H      0.327490000000     0.134050000000     0.798380000000     0.0498077  
H164     H      0.321390000000     0.162560000000     0.965190000000     0.052318   
H165     H      0.383720000000     0.152640000000     0.971530000000     0.0521644  
H166     H      0.318600000000     0.144960000000     0.852280000000     0.0369396  
H167     H      0.382840000000     0.155230000000     0.034320000000     0.0252098  
H168     H      0.303210000000     0.121230000000     0.718850000000     0.00394171 
H169     H      0.391540000000     0.184100000000     0.250750000000     0.0253255  
H170     H      0.357400000000     0.221590000000     0.530990000000     0.0232828  
H171     H      0.316940000000     0.150990000000     0.357300000000     0.0377491  
H172     H      0.387430000000     0.210920000000     0.426460000000     0.0377663  
H173     H      0.363180000000     0.220440000000     0.468950000000     0.0539452  
H174     H      0.390270000000     0.211290000000     0.362880000000     0.037964   
H175     H      0.332360000000     0.143100000000     0.474220000000     0.0560242  
H176     H      0.390520000000     0.184890000000     0.313940000000     0.0529294  
H177     H      0.320170000000     0.179330000000     0.309060000000     0.0527137  
H178     H      0.314030000000     0.150790000000     0.420750000000     0.0370988  
H179     H      0.321670000000     0.178630000000     0.246050000000     0.0249761  
H180     H      0.300310000000     0.115670000000     0.526070000000     0.0309828  
H181     H      0.441700000000     0.028790000000     0.476110000000     0.0256564  
H182     H      0.419760000000     0.183110000000     0.608790000000     0.024496   
H183     H      0.416570000000     0.087330000000     0.472310000000     0.038318   
H184     H      0.449310000000     0.135640000000     0.580280000000     0.0370731  
H185     H      0.441060000000     0.167280000000     0.575970000000     0.0528266  
H186     H      0.469260000000     0.115010000000     0.555400000000     0.0386362  
H187     H      0.372730000000     0.108020000000     0.541120000000     0.0568171  
H188     H      0.422350000000     0.051540000000     0.494850000000     0.0531819  
H189     H      0.492380000000     0.116500000000     0.498680000000     0.053096   
H190     H      0.397130000000     0.108990000000     0.495990000000     0.0367122  
H191     H      0.511210000000     0.093460000000     0.479400000000     0.0259834  
H192     H      0.327760000000     0.106250000000     0.599700000000     0.04201    
H193     H      0.148940000000     0.394820000000     0.837940000000     0.0254555  
H194     H      0.005370000000     0.424430000000     0.989050000000     0.0191279  
H195     H      0.076320000000     0.401690000000     0.836650000000     0.0388251  
H196     H      0.060200000000     0.400570000000     0.963230000000     0.0367054  
H197     H      0.023900000000     0.401420000000     0.967670000000     0.0526817  
H198     H      0.080930000000     0.379670000000     0.941210000000     0.0388908  
H199     H      0.058930000000     0.454500000000     0.886300000000     0.0546505  
H200     H      0.125010000000     0.412530000000     0.858220000000     0.0536981  
H201     H      0.067550000000     0.341540000000     0.887300000000     0.0536621  
H202     H      0.054140000000     0.421170000000     0.857790000000     0.0358415  
H203     H      0.091530000000     0.324060000000     0.865770000000     0.0253177  
H204     H      0.053280000000     0.490240000000     0.868550000000     0.0314567  
H205     H      0.175370000000     0.264110000000     0.791550000000     0.0251836  
H206     H      0.340050000000     0.249990000000     0.675180000000     0.0262274  
H207     H      0.230850000000     0.238900000000     0.783520000000     0.0374193  
H208     H      0.288020000000     0.280330000000     0.686050000000     0.0372087  
H209     H      0.319600000000     0.269590000000     0.700090000000     0.053331   
H210     H      0.265970000000     0.298830000000     0.711460000000     0.0376337  
H211     H      0.252820000000     0.201570000000     0.701840000000     0.0575799  
H212     H      0.198730000000     0.246690000000     0.769010000000     0.0520661  
H213     H      0.261700000000     0.318220000000     0.762950000000     0.0522524  
H214     H      0.252670000000     0.220350000000     0.757820000000     0.0375821  
H215     H      0.237580000000     0.335210000000     0.784820000000     0.0253196  
H216     H      0.256240000000     0.166770000000     0.639630000000     0.0387913  
H217     H      0.534660000000     0.491250000000     0.867260000000     0.0251961  
H218     H      0.497200000000     0.520760000000     0.587350000000     0.024853   
H219     H      0.457640000000     0.448010000000     0.761370000000     0.038018   
H220     H      0.525030000000     0.512990000000     0.693180000000     0.0377676  
H221     H      0.497150000000     0.518900000000     0.650090000000     0.0540585  
H222     H      0.528080000000     0.512740000000     0.756580000000     0.0383193  
H223     H      0.476960000000     0.443720000000     0.645130000000     0.0582319  
H224     H      0.531000000000     0.486290000000     0.804450000000     0.0529826  
H225     H      0.458780000000     0.476120000000     0.810100000000     0.0531867  
H226     H      0.454600000000     0.448260000000     0.697710000000     0.0376348  
H227     H      0.462970000000     0.481310000000     0.872750000000     0.0257097  
H228     H      0.490550000000     0.430970000000     0.566470000000     0.0410598  
H229     H      0.483710000000     0.519380000000     0.084430000000     0.0250274  
H230     H      0.522690000000     0.542850000000     0.375650000000     0.0256429  
H231     H      0.485120000000     0.490610000000     0.191040000000     0.0384405  
H232     H      0.555170000000     0.550140000000     0.261400000000     0.0378728  
H233     H      0.527020000000     0.550090000000     0.313570000000     0.0542436  
H234     H      0.555820000000     0.554870000000     0.197780000000     0.0379674  
H235     H      0.511490000000     0.477090000000     0.296670000000     0.058889   
H236     H      0.485340000000     0.521710000000     0.147450000000     0.0529217  
H237     H      0.556370000000     0.528800000000     0.145160000000     0.0532114  
H238     H      0.484610000000     0.485800000000     0.254160000000     0.037895   
H239     H      0.554190000000     0.526180000000     0.081980000000     0.025202   
H240     H      0.478170000000     0.443910000000     0.363860000000     0.0397341  
H241     H      0.812000000000     0.180760000000     0.750160000000     0.0253324  
H242     H      0.849390000000     0.141080000000     0.025640000000     0.0213397  
H243     H      0.835370000000     0.207480000000     0.861410000000     0.0369199  
H244     H      0.877960000000     0.168170000000     0.915100000000     0.0372198  
H245     H      0.853030000000     0.147030000000     0.962190000000     0.0520819  
H246     H      0.875700000000     0.169590000000     0.852160000000     0.037343   
H247     H      0.858220000000     0.217290000000     0.976200000000     0.0496741  
H248     H      0.816550000000     0.183430000000     0.812700000000     0.0522253  
H249     H      0.888500000000     0.193230000000     0.801680000000     0.0523717  
H250     H      0.835910000000     0.204280000000     0.924360000000     0.0366461  
H251     H      0.882820000000     0.189260000000     0.739240000000     0.02568    
H252     H      0.849970000000     0.232710000000     0.055720000000     0.00337233 
H253     H      0.858050000000     0.161460000000     0.523770000000     0.0252193  
H254     H      0.822910000000     0.205140000000     0.248760000000     0.021637   
H255     H      0.835360000000     0.136550000000     0.411710000000     0.0367664  
H256     H      0.793990000000     0.177480000000     0.359230000000     0.0372538  
H257     H      0.819040000000     0.198780000000     0.312180000000     0.0520802  
H258     H      0.795770000000     0.175110000000     0.422160000000     0.0371614  
H259     H      0.813020000000     0.128240000000     0.297130000000     0.0495809  
H260     H      0.854000000000     0.159800000000     0.461170000000     0.0521719  
H261     H      0.782220000000     0.150480000000     0.471830000000     0.0519319  
H262     H      0.835290000000     0.140660000000     0.348900000000     0.0367492  
H263     H      0.787390000000     0.153390000000     0.534410000000     0.025142   
H264     H      0.821320000000     0.113140000000     0.217620000000     0.0034485  
H265     H      0.155080000000     0.358890000000     0.422700000000     0.0252884  
H266     H      0.127770000000     0.292220000000     0.715670000000     0.0247041  
H267     H      0.177370000000     0.358960000000     0.536710000000     0.038577   
H268     H      0.107410000000     0.295210000000     0.602430000000     0.0365035  
H269     H      0.124090000000     0.290250000000     0.653270000000     0.0527402  
H270     H      0.108200000000     0.292810000000     0.538990000000     0.0381545  
H271     H      0.160860000000     0.368220000000     0.648670000000     0.0573282  
H272     H      0.150580000000     0.360570000000     0.485240000000     0.052964   
H273     H      0.137240000000     0.287440000000     0.494260000000     0.0531217  
H274     H      0.177500000000     0.360850000000     0.599940000000     0.0369338  
H275     H      0.142300000000     0.286380000000     0.431640000000     0.0254991  
H276     H      0.193770000000     0.391320000000     0.721410000000     0.0408349  
H277     H      0.152570000000     0.290350000000     0.929260000000     0.0251436  
H278     H      0.196600000000     0.363530000000     0.214670000000     0.0245659  
H279     H      0.194190000000     0.298540000000     0.036430000000     0.0380896  
H280     H      0.181860000000     0.358880000000     0.101270000000     0.0368438  
H281     H      0.203120000000     0.366110000000     0.152830000000     0.0526905  
H282     H      0.182320000000     0.359580000000     0.037970000000     0.0385298  
H283     H      0.169910000000     0.288430000000     0.147770000000     0.0571436  
H284     H      0.158660000000     0.290470000000     0.991750000000     0.0530407  
H285     H      0.213010000000     0.366120000000     0.986420000000     0.0530054  
H286     H      0.195220000000     0.298520000000     0.100010000000     0.0364     
H287     H      0.206960000000     0.365400000000     0.923810000000     0.025287   
H288     H      0.174360000000     0.267830000000     0.226930000000     0.0393569  
H289     H      0.905440000000     0.170670000000     0.175580000000     0.0240586  
H290     H      0.095570000000     0.323840000000     0.280710000000     0.0260625  
H291     H      0.988300000000     0.213760000000     0.187230000000     0.0370496  
H292     H      0.012380000000     0.281730000000     0.270190000000     0.0374664  
H293     H      0.055810000000     0.306220000000     0.255200000000     0.0532019  
H294     H      0.972620000000     0.263510000000     0.242400000000     0.0372238  
H295     H      0.044830000000     0.234950000000     0.274360000000     0.0576194  
H296     H      0.945760000000     0.188920000000     0.200480000000     0.0520406  
H297     H      0.953350000000     0.259670000000     0.186770000000     0.0523459  
H298     H      0.027950000000     0.231850000000     0.215360000000     0.0377082  
H299     H      0.912750000000     0.240840000000     0.162770000000     0.0244925  
H300     H      0.098570000000     0.237980000000     0.283030000000     0.0400413  
H301     H      0.236880000000     0.324390000000     0.354560000000     0.0252871  
H302     H      0.426810000000     0.486720000000     0.444470000000     0.0258515  
H303     H      0.301840000000     0.366740000000     0.426030000000     0.0378283  
H304     H      0.364030000000     0.443360000000     0.371140000000     0.0371485  
H305     H      0.385740000000     0.465730000000     0.423440000000     0.0533728  
H306     H      0.322880000000     0.422520000000     0.347770000000     0.0374404  
H307     H      0.384040000000     0.397720000000     0.434420000000     0.0578018  
H308     H      0.278550000000     0.344310000000     0.374860000000     0.0524941  
H309     H      0.282290000000     0.413570000000     0.364180000000     0.0522642  
H310     H      0.343010000000     0.387600000000     0.449420000000     0.0370406  
H311     H      0.240810000000     0.393200000000     0.343430000000     0.0250871  
H312     H      0.423640000000     0.405860000000     0.498500000000     0.0389747  
H313     H      0.532420000000     0.050290000000     0.841220000000     0.0252215  
H314     H      0.498370000000     0.979260000000     0.556600000000     0.0252206  
H315     H      0.566710000000     0.040410000000     0.733960000000     0.0384811  
H316     H      0.491390000000     0.983020000000     0.671300000000     0.0371862  
H317     H      0.502820000000     0.975460000000     0.618100000000     0.0530528  
H318     H      0.492500000000     0.982010000000     0.734610000000     0.0393353  
H319     H      0.551630000000     0.052470000000     0.624580000000     0.0573056  
H320     H      0.537420000000     0.049600000000     0.778590000000     0.0537043  
H321     H      0.520220000000     0.975150000000     0.785590000000     0.053675   
H322     H      0.566490000000     0.040540000000     0.670380000000     0.0365033  
H323     H      0.516040000000     0.976500000000     0.848460000000     0.0257061  
H324     H      0.576090000000     0.073040000000     0.545310000000     0.0396738  
H325     H      0.497940000000     0.048260000000     0.052850000000     0.0252603  
H326     H      0.473770000000     0.985110000000     0.346780000000     0.0240803  
H327     H      0.524890000000     0.047390000000     0.165210000000     0.0390254  
H328     H      0.453440000000     0.990020000000     0.234990000000     0.0364024  
H329     H      0.469270000000     0.982980000000     0.284600000000     0.0525445  
H330     H      0.452110000000     0.986570000000     0.171580000000     0.0382047  
H331     H      0.514670000000     0.060570000000     0.278320000000     0.0574155  
H332     H      0.495050000000     0.050920000000     0.115600000000     0.0534428  
H333     H      0.480950000000     0.977620000000     0.125750000000     0.0534083  
H334     H      0.527150000000     0.050050000000     0.228430000000     0.0368826  
H335     H      0.484610000000     0.975600000000     0.062910000000     0.0248925  
H336     H      0.549570000000     0.080620000000     0.350060000000     0.0406602  
H337     H      0.582230000000     0.082460000000     0.977900000000     0.0251708  
H338     H      0.761780000000     0.106180000000     0.106320000000     0.0253431  
H339     H      0.664280000000     0.113820000000     0.992290000000     0.0373409  
H340     H      0.679720000000     0.074420000000     0.092960000000     0.0371922  
H341     H      0.722060000000     0.085950000000     0.080670000000     0.0532218  
H342     H      0.640070000000     0.054190000000     0.064780000000     0.0378271  
H343     H      0.721980000000     0.153330000000     0.076980000000     0.0576791  
H344     H      0.622600000000     0.102860000000     0.002790000000     0.0522427  
H345     H      0.620170000000     0.034080000000     0.011210000000     0.0526292  
H346     H      0.703880000000     0.134120000000     0.020710000000     0.037029   
H347     H      0.579580000000     0.014130000000     0.986990000000     0.0255101  
H348     H      0.779250000000     0.199260000000     0.078760000000     0.037022   
H349     H      0.160450000000     0.866020000000     0.407850000000     0.0252846  
H350     H      0.200030000000     0.832470000000     0.694480000000     0.0253059  
H351     H      0.152410000000     0.849730000000     0.520800000000     0.0375366  
H352     H      0.228520000000     0.873320000000     0.585650000000     0.0377967  
H353     H      0.205190000000     0.837610000000     0.632140000000     0.0541579  
H354     H      0.229310000000     0.874110000000     0.522000000000     0.0370827  
H355     H      0.173170000000     0.883090000000     0.633300000000     0.058331   
H356     H      0.163820000000     0.872080000000     0.470080000000     0.0520048  
H357     H      0.217740000000     0.849700000000     0.472770000000     0.051974   
H358     H      0.152220000000     0.850370000000     0.584040000000     0.0379597  
H359     H      0.214940000000     0.845310000000     0.410140000000     0.025104   
H360     H      0.136980000000     0.867490000000     0.702870000000     0.0384371  
H361     H      0.133850000000     0.827280000000     0.196430000000     0.0251227  
H362     H      0.173090000000     0.799830000000     0.904160000000     0.0249062  
H363     H      0.117240000000     0.796360000000     0.086560000000     0.0369057  
H364     H      0.192720000000     0.825720000000     0.017590000000     0.0380094  
H365     H      0.171720000000     0.793750000000     0.966460000000     0.0538336  
H366     H      0.195000000000     0.826090000000     0.080890000000     0.0373525  
H367     H      0.133920000000     0.833440000000     0.978610000000     0.0584131  
H368     H      0.129460000000     0.822130000000     0.134180000000     0.0518805  
H369     H      0.186950000000     0.804650000000     0.132850000000     0.0517146  
H370     H      0.115420000000     0.797320000000     0.023130000000     0.0378329  
H371     H      0.191730000000     0.811310000000     0.195100000000     0.0249517  
H372     H      0.143340000000     0.868580000000     0.908610000000     0.0409438  
H373     H      0.247410000000     0.849130000000     0.825270000000     0.0251132  
H374     H      0.434190000000     0.010000000000     0.925570000000     0.0259453  
H375     H      0.308630000000     0.889830000000     0.902790000000     0.0376929  
H376     H      0.365670000000     0.972380000000     0.858610000000     0.0374125  
H377     H      0.392100000000     0.991120000000     0.908820000000     0.0532942  
H378     H      0.323680000000     0.951240000000     0.837950000000     0.0380616  
H379     H      0.389420000000     0.922570000000     0.899720000000     0.0577289  
H380     H      0.288750000000     0.871930000000     0.846130000000     0.0525734  
H381     H      0.280600000000     0.934820000000     0.858420000000     0.0527884  
H382     H      0.350330000000     0.910970000000     0.923840000000     0.0369062  
H383     H      0.239120000000     0.911480000000     0.837250000000     0.0255421  
H384     H      0.433770000000     0.923450000000     0.947700000000     0.0390917  
H385     H      0.836480000000     0.696000000000     0.028360000000     0.0252469  
H386     H      0.802400000000     0.622380000000     0.744150000000     0.0245601  
H387     H      0.797680000000     0.688300000000     0.917780000000     0.0382916  
H388     H      0.810360000000     0.625870000000     0.859950000000     0.036941   
H389     H      0.793050000000     0.619610000000     0.805280000000     0.052725   
H390     H      0.806570000000     0.625520000000     0.923060000000     0.0389905  
H391     H      0.827970000000     0.697410000000     0.810720000000     0.057299   
H392     H      0.832440000000     0.695160000000     0.965420000000     0.0535386  
H393     H      0.773160000000     0.621640000000     0.971540000000     0.0532544  
H394     H      0.799850000000     0.687960000000     0.854350000000     0.0364867  
H395     H      0.777120000000     0.623150000000     0.034700000000     0.0256579  
H396     H      0.828630000000     0.719350000000     0.730650000000     0.0397471  
H397     H      0.866780000000     0.691180000000     0.240790000000     0.0253133  
H398     H      0.832130000000     0.624880000000     0.533950000000     0.0248893  
H399     H      0.844520000000     0.691050000000     0.355370000000     0.0387368  
H400     H      0.852060000000     0.627340000000     0.419230000000     0.0367052  
H401     H      0.832200000000     0.622600000000     0.471430000000     0.0528922  
H402     H      0.847560000000     0.624890000000     0.355920000000     0.0383226  
H403     H      0.872460000000     0.700580000000     0.465930000000     0.0574972  
H404     H      0.873300000000     0.692370000000     0.303210000000     0.0531967  
H405     H      0.811760000000     0.620300000000     0.312210000000     0.0532906  
H406     H      0.847460000000     0.692940000000     0.418530000000     0.0369969  
H407     H      0.805240000000     0.619760000000     0.249650000000     0.0250984  
H408     H      0.864100000000     0.723740000000     0.539680000000     0.040869   
H409     H      0.764590000000     0.663810000000     0.603850000000     0.0251353  
H410     H      0.575530000000     0.502740000000     0.508370000000     0.0260637  
H411     H      0.700150000000     0.622480000000     0.530990000000     0.0379715  
H412     H      0.636620000000     0.545840000000     0.584170000000     0.0371661  
H413     H      0.616260000000     0.523700000000     0.530760000000     0.0535437  
H414     H      0.677280000000     0.566430000000     0.609210000000     0.037454   
H415     H      0.617990000000     0.591700000000     0.519310000000     0.0576736  
H416     H      0.723120000000     0.644640000000     0.582620000000     0.0525327  
H417     H      0.717710000000     0.574670000000     0.594030000000     0.0524467  
H418     H      0.659430000000     0.601890000000     0.505990000000     0.0376763  
H419     H      0.758880000000     0.594240000000     0.615660000000     0.0251368  
H420     H      0.561590000000     0.582370000000     0.514910000000     0.0396789  
H421     H      0.100260000000     0.764540000000     0.768270000000     0.025561   
H422     H      0.908620000000     0.729370000000     0.672560000000     0.02647    
H423     H      0.034710000000     0.738220000000     0.697260000000     0.0381828  
H424     H      0.969640000000     0.749190000000     0.749950000000     0.0372328  
H425     H      0.949160000000     0.749980000000     0.695530000000     0.0538204  
H426     H      0.010430000000     0.770750000000     0.774470000000     0.0379541  
H427     H      0.952450000000     0.684370000000     0.687690000000     0.0581508  
H428     H      0.058780000000     0.740870000000     0.747760000000     0.0524225  
H429     H      0.050110000000     0.803530000000     0.759570000000     0.0519216  
H430     H      0.993810000000     0.716470000000     0.672980000000     0.0375254  
H431     H      0.091360000000     0.826490000000     0.780710000000     0.0250287  
H432     H      0.896250000000     0.636730000000     0.684220000000     0.0402916  
N1       N      0.800750000000     0.099540000000     0.662160000000    -0.196401   
N2       N      0.700710000000     0.906690000000     0.771180000000    -0.193709   
N3       N      0.961260000000     0.435640000000     0.505710000000    -0.196403   
N4       N      0.868960000000     0.242080000000     0.611870000000    -0.19363    
N5       N      0.134960000000     0.767470000000     0.333060000000    -0.196676   
N6       N      0.035640000000     0.577250000000     0.450570000000    -0.193823   
N7       N      0.630950000000     0.765620000000     0.829480000000    -0.196705   
N8       N      0.541940000000     0.574890000000     0.945500000000    -0.193773   
N9       N      0.317920000000     0.099160000000     0.161250000000    -0.196952   
N10      N      0.216030000000     0.907370000000     0.272180000000    -0.193846   
N11      N      0.476780000000     0.434670000000     0.007510000000    -0.196405   
N12      N      0.390210000000     0.242750000000     0.117880000000    -0.193619   
N13      N      0.664000000000     0.819420000000     0.698770000000    -0.197921   
N14      N      0.669080000000     0.824490000000     0.402820000000    -0.193838   
N15      N      0.661290000000     0.850850000000     0.198590000000    -0.19781    
N16      N      0.667320000000     0.852550000000     0.902570000000    -0.193809   
N17      N      0.694550000000     0.796360000000     0.271500000000    -0.19621    
N18      N      0.786560000000     0.694020000000     0.166740000000    -0.193116   
N19      N      0.543390000000     0.982240000000     0.425770000000    -0.196048   
N20      N      0.635820000000     0.878290000000     0.330100000000    -0.193186   
N21      N      0.994170000000     0.505340000000     0.876870000000    -0.198867   
N22      N      0.004800000000     0.521730000000     0.581420000000    -0.193761   
N23      N      0.986320000000     0.475050000000     0.081160000000    -0.194948   
N24      N      0.992680000000     0.491450000000     0.375520000000    -0.193339   
N25      N      0.855070000000     0.620990000000     0.109470000000    -0.196069   
N26      N      0.954620000000     0.526500000000     0.003770000000    -0.19342    
N27      N      0.362120000000     0.178640000000     0.741800000000    -0.196161   
N28      N      0.351750000000     0.160060000000     0.035800000000    -0.19401    
N29      N      0.340860000000     0.183160000000     0.538620000000    -0.198319   
N30      N      0.356570000000     0.181000000000     0.243690000000    -0.193975   
N31      N      0.384030000000     0.154760000000     0.594790000000    -0.198099   
N32      N      0.477900000000     0.059360000000     0.476630000000    -0.19312    
N33      N      0.022070000000     0.452550000000     0.950960000000    -0.198739   
N34      N      0.122060000000     0.358140000000     0.850430000000    -0.193566   
N35      N      0.308760000000     0.214070000000     0.674430000000    -0.196501   
N36      N      0.204650000000     0.300980000000     0.789680000000    -0.193469   
N37      N      0.488010000000     0.483670000000     0.579340000000    -0.198382   
N38      N      0.499290000000     0.487120000000     0.874580000000    -0.194266   
N39      N      0.514300000000     0.505680000000     0.372690000000    -0.1975     
N40      N      0.518550000000     0.521950000000     0.078590000000    -0.194253   
N41      N      0.851690000000     0.175130000000     0.035210000000    -0.195694   
N42      N      0.846880000000     0.184400000000     0.740040000000    -0.193643   
N43      N      0.820250000000     0.170990000000     0.238720000000    -0.195374   
N44      N      0.823230000000     0.157990000000     0.533770000000    -0.193734   
N45      N      0.147840000000     0.331130000000     0.718550000000    -0.197926   
N46      N      0.149390000000     0.322650000000     0.422560000000    -0.193659   
N47      N      0.179870000000     0.324720000000     0.217730000000    -0.197474   
N48      N      0.179050000000     0.327940000000     0.921960000000    -0.193805   
N49      N      0.094130000000     0.289920000000     0.291710000000    -0.196814   
N50      N      0.905950000000     0.204340000000     0.167730000000    -0.194192   
N51      N      0.429890000000     0.454780000000     0.451550000000    -0.197255   
N52      N      0.235670000000     0.357270000000     0.347710000000    -0.194017   
N53      N      0.522750000000     0.017740000000     0.554300000000    -0.197605   
N54      N      0.523540000000     0.013360000000     0.849410000000    -0.193961   
N55      N      0.497950000000     0.023650000000     0.348870000000    -0.198227   
N56      N      0.491930000000     0.011900000000     0.053290000000    -0.194051   
N57      N      0.765860000000     0.141910000000     0.105980000000    -0.1969     
N58      N      0.577750000000     0.046740000000     0.981040000000    -0.193922   
N59      N      0.183370000000     0.854540000000     0.700610000000    -0.197205   
N60      N      0.187110000000     0.854800000000     0.404440000000    -0.193824   
N61      N      0.155180000000     0.820950000000     0.904950000000    -0.197781   
N62      N      0.163380000000     0.820090000000     0.200360000000    -0.193853   
N63      N      0.436560000000     0.977430000000     0.923140000000    -0.196953   
N64      N      0.240070000000     0.878510000000     0.830050000000    -0.193936   
N65      N      0.819880000000     0.661240000000     0.741320000000    -0.197523   
N66      N      0.807370000000     0.659520000000     0.036150000000    -0.193662   
N67      N      0.850560000000     0.663780000000     0.536410000000    -0.197926   
N68      N      0.835320000000     0.655520000000     0.240620000000    -0.193697   
N69      N      0.572470000000     0.534690000000     0.501050000000    -0.197229   
N70      N      0.764900000000     0.630500000000     0.611080000000    -0.194129   
N71      N      0.906310000000     0.694580000000     0.666870000000    -0.19681    
N72      N      0.098980000000     0.797320000000     0.775790000000    -0.193983   
O1       O      0.872640000000     0.696590000000     0.649530000000    -0.398621   
O2       O      0.801490000000     0.664660000000     0.623190000000    -0.397811   
O3       O      0.828640000000     0.679730000000     0.687380000000    -0.397584   
O4       O      0.845950000000     0.681800000000     0.585510000000    -0.397896   
O5       O      0.842010000000     0.645180000000     0.590130000000    -0.3969     
O6       O      0.825320000000     0.643420000000     0.692570000000    -0.397316   
O7       O      0.798290000000     0.628340000000     0.628770000000    -0.399984   
O8       O      0.869540000000     0.660400000000     0.654110000000    -0.396162   
O9       O      0.202610000000     0.874550000000     0.819340000000    -0.397098   
O10      O      0.131460000000     0.833320000000     0.794040000000    -0.39896    
O11      O      0.158850000000     0.844790000000     0.857490000000    -0.39717    
O12      O      0.174820000000     0.862730000000     0.755810000000    -0.395924   
O13      O      0.180050000000     0.831060000000     0.748280000000    -0.398149   
O14      O      0.164270000000     0.813180000000     0.850120000000    -0.398345   
O15      O      0.136450000000     0.801380000000     0.786610000000    -0.397997   
O16      O      0.207560000000     0.842590000000     0.811720000000    -0.399725   
O17      O      0.472590000000     0.012600000000     0.934750000000    -0.396941   
O18      O      0.543840000000     0.047480000000     0.961780000000    -0.398276   
O19      O      0.517470000000     0.031110000000     0.897500000000    -0.398898   
O20      O      0.499450000000     0.029370000000     0.998970000000    -0.399186   
O21      O      0.497650000000     0.993710000000     0.005300000000    -0.397854   
O22      O      0.515310000000     0.995260000000     0.903420000000    -0.397343   
O23      O      0.542200000000     0.011870000000     0.967710000000    -0.398783   
O24      O      0.471140000000     0.977260000000     0.941200000000    -0.398796   
O25      O      0.201640000000     0.358440000000     0.330430000000    -0.399132   
O26      O      0.130310000000     0.324540000000     0.304560000000    -0.398105   
O27      O      0.157520000000     0.340710000000     0.368570000000    -0.398515   
O28      O      0.174720000000     0.342520000000     0.266610000000    -0.398744   
O29      O      0.172090000000     0.306520000000     0.271970000000    -0.395943   
O30      O      0.155140000000     0.304750000000     0.374220000000    -0.396781   
O31      O      0.128210000000     0.288870000000     0.310280000000    -0.396985   
O32      O      0.199500000000     0.322580000000     0.335950000000    -0.398229   
O33      O      0.802420000000     0.175760000000     0.120640000000    -0.399436   
O34      O      0.873120000000     0.207110000000     0.148690000000    -0.401217   
O35      O      0.846900000000     0.192020000000     0.084240000000    -0.423133   
O36      O      0.828730000000     0.191240000000     0.185640000000    -0.395593   
O37      O      0.824990000000     0.154210000000     0.189550000000    -0.423611   
O38      O      0.843450000000     0.155120000000     0.088400000000    -0.397168   
O39      O      0.869650000000     0.170550000000     0.153480000000    -0.400721   
O40      O      0.798950000000     0.139340000000     0.124980000000    -0.400935   
O41      O      0.535330000000     0.531400000000     0.488890000000    -0.397778   
O42      O      0.463720000000     0.491050000000     0.466270000000    -0.398906   
O43      O      0.492200000000     0.505280000000     0.529180000000    -0.39933    
O44      O      0.507100000000     0.517280000000     0.426100000000    -0.39865    
O45      O      0.510300000000     0.484170000000     0.423130000000    -0.396897   
O46      O      0.495240000000     0.472050000000     0.525930000000    -0.399006   
O47      O      0.467110000000     0.458070000000     0.463200000000    -0.396415   
O48      O      0.538720000000     0.498410000000     0.486050000000    -0.398545   
O49      O      0.126580000000     0.325250000000     0.837700000000    -0.396266   
O50      O      0.168280000000     0.296660000000     0.808010000000    -0.398297   
O51      O      0.156000000000     0.309700000000     0.873290000000    -0.397912   
O52      O      0.139110000000     0.312080000000     0.771950000000    -0.397236   
O53      O      0.170990000000     0.349220000000     0.767300000000    -0.397452   
O54      O      0.187500000000     0.347180000000     0.868790000000    -0.397845   
O55      O      0.200330000000     0.333820000000     0.803740000000    -0.39669    
O56      O      0.158360000000     0.362450000000     0.831810000000    -0.397687   
O57      O      0.311990000000     0.180730000000     0.658360000000    -0.399964   
O58      O      0.351040000000     0.150420000000     0.625400000000    -0.404167   
O59      O      0.340170000000     0.163360000000     0.692530000000    -0.426307   
O60      O      0.324320000000     0.167400000000     0.592150000000    -0.400841   
O61      O      0.356960000000     0.204210000000     0.588980000000    -0.400333   
O62      O      0.373420000000     0.200400000000     0.689970000000    -0.39684    
O63      O      0.384160000000     0.186890000000     0.622380000000    -0.397218   
O64      O      0.344720000000     0.217290000000     0.655300000000    -0.397189   
O65      O      0.987870000000     0.453240000000     0.966560000000    -0.395437   
O66      O      0.954100000000     0.491980000000     0.984360000000    -0.396908   
O67      O      0.974040000000     0.480760000000     0.923170000000    -0.392878   
O68      O      0.968500000000     0.464060000000     0.026440000000    -0.394843   
O69      O      0.005650000000     0.496780000000     0.033060000000    -0.422941   
O70      O      0.007460000000     0.516530000000     0.932490000000    -0.398427   
O71      O      0.989660000000     0.524930000000     0.995950000000    -0.39929    
O72      O      0.023550000000     0.487750000000     0.968130000000    -0.394315   
O73      O      0.632040000000     0.841910000000     0.313280000000    -0.398268   
O74      O      0.661400000000     0.800640000000     0.285430000000    -0.395404   
O75      O      0.648890000000     0.814320000000     0.350350000000    -0.397607   
O76      O      0.644390000000     0.828490000000     0.248480000000    -0.396981   
O77      O      0.681500000000     0.860620000000     0.251070000000    -0.398378   
O78      O      0.686030000000     0.846580000000     0.352970000000    -0.39777    
O79      O      0.698280000000     0.832900000000     0.288160000000    -0.397205   
O80      O      0.668990000000     0.874430000000     0.315990000000    -0.395598   
O81      O      0.786170000000     0.658410000000     0.154420000000    -0.396876   
O82      O      0.820870000000     0.621860000000     0.128070000000    -0.395926   
O83      O      0.811150000000     0.638570000000     0.192340000000    -0.396727   
O84      O      0.796190000000     0.641460000000     0.090120000000    -0.396286   
O85      O      0.830620000000     0.676710000000     0.084960000000    -0.398338   
O86      O      0.845690000000     0.673660000000     0.186740000000    -0.398735   
O87      O      0.855420000000     0.656620000000     0.122520000000    -0.396387   
O88      O      0.820850000000     0.693410000000     0.149110000000    -0.397232   
O89      O      0.509440000000     0.984420000000     0.441980000000    -0.396109   
O90      O      0.476300000000     0.023030000000     0.465420000000    -0.396249   
O91      O      0.486480000000     0.005250000000     0.402490000000    -0.3994     
O92      O      0.499420000000     0.001840000000     0.505100000000    -0.397826   
O93      O      0.534700000000     0.036120000000     0.500440000000    -0.396702   
O94      O      0.521450000000     0.039910000000     0.398000000000    -0.396905   
O95      O      0.511820000000     0.057280000000     0.461500000000    -0.396879   
O96      O      0.544650000000     0.018540000000     0.436900000000    -0.396687   
O97      O      0.353610000000     0.134920000000     0.150770000000    -0.396742   
O98      O      0.390150000000     0.207360000000     0.131020000000    -0.395908   
O99      O      0.373810000000     0.177630000000     0.192880000000    -0.397703   
O100     O      0.370050000000     0.164470000000     0.089090000000    -0.397859   
O101     O      0.335340000000     0.165040000000     0.086320000000    -0.398795   
O102     O      0.338440000000     0.176880000000     0.190330000000    -0.399457   
O103     O      0.355010000000     0.207110000000     0.129240000000    -0.40014    
O104     O      0.318780000000     0.134910000000     0.147390000000    -0.399158   
O105     O      0.510620000000     0.470190000000     0.990110000000    -0.397594   
O106     O      0.543640000000     0.540980000000     0.961730000000    -0.398322   
O107     O      0.532410000000     0.515290000000     0.026790000000    -0.398247   
O108     O      0.521880000000     0.496030000000     0.924870000000    -0.398135   
O109     O      0.485950000000     0.494120000000     0.926470000000    -0.399791   
O110     O      0.496810000000     0.514130000000     0.027760000000    -0.400323   
O111     O      0.507900000000     0.539510000000     0.962210000000    -0.397975   
O112     O      0.475160000000     0.468980000000     0.991820000000    -0.396664   
O113     O      0.212480000000     0.870760000000     0.287670000000    -0.397021   
O114     O      0.171290000000     0.800190000000     0.315670000000    -0.39883    
O115     O      0.185420000000     0.825920000000     0.250630000000    -0.396993   
O116     O      0.198120000000     0.844630000000     0.352780000000    -0.397026   
O117     O      0.165760000000     0.849480000000     0.353780000000    -0.398665   
O118     O      0.152600000000     0.829980000000     0.252310000000    -0.399618   
O119     O      0.138730000000     0.804410000000     0.317680000000    -0.39561    
O120     O      0.179570000000     0.874690000000     0.288510000000    -0.399621   
O121     O      0.034570000000     0.541790000000     0.466050000000    -0.397725   
O122     O      0.997040000000     0.470610000000     0.492490000000    -0.397217   
O123     O      0.012120000000     0.497140000000     0.428150000000    -0.39857    
O124     O      0.019690000000     0.515290000000     0.530450000000    -0.397551   
O125     O      0.984570000000     0.515100000000     0.529210000000    -0.395179   
O126     O      0.978170000000     0.499180000000     0.425970000000    -0.397206   
O127     O      0.962610000000     0.471380000000     0.489610000000    -0.395794   
O128     O      0.000090000000     0.542880000000     0.465540000000    -0.399311   
O129     O      0.869670000000     0.206980000000     0.623350000000    -0.398349   
O130     O      0.835210000000     0.135220000000     0.645980000000    -0.3953     
O131     O      0.846120000000     0.163640000000     0.583030000000    -0.398002   
O132     O      0.858940000000     0.178840000000     0.686020000000    -0.397321   
O133     O      0.823780000000     0.178330000000     0.690880000000    -0.397485   
O134     O      0.810950000000     0.163110000000     0.587880000000    -0.397736   
O135     O      0.800300000000     0.134900000000     0.650610000000    -0.398227   
O136     O      0.834610000000     0.206730000000     0.627900000000    -0.397009   
O137     O      0.666020000000     0.801520000000     0.817080000000    -0.397743   
O138     O      0.701100000000     0.872530000000     0.789740000000    -0.39866    
O139     O      0.684920000000     0.846350000000     0.854290000000    -0.39776    
O140     O      0.682380000000     0.828030000000     0.752620000000    -0.398557   
O141     O      0.646710000000     0.826230000000     0.747050000000    -0.3951     
O142     O      0.649210000000     0.844610000000     0.848610000000    -0.397821   
O143     O      0.665570000000     0.871180000000     0.784080000000    -0.396652   
O144     O      0.630640000000     0.800150000000     0.811380000000    -0.395892   
S1       S      0.843310000000     0.097150000000     0.655280000000    -0.0433118  
S2       S      0.916390000000     0.433340000000     0.498070000000    -0.0431757  
S3       S      0.091440000000     0.767850000000     0.325460000000    -0.0433972  
S4       S      0.585560000000     0.759320000000     0.811350000000    -0.0430732  
S5       S      0.273180000000     0.094900000000     0.144240000000    -0.0442858  
S6       S      0.430300000000     0.428540000000     0.999910000000    -0.0438924  
S7       S      0.613570000000     0.795490000000     0.697030000000    -0.0446271  
S8       S      0.610920000000     0.827900000000     0.200420000000    -0.0463492  
S9       S      0.650570000000     0.753180000000     0.279920000000    -0.0438961  
S10      S      0.499160000000     0.938540000000     0.425220000000    -0.0437358  
S11      S      0.001190000000     0.466280000000     0.871380000000    -0.0392961  
S12      S      0.023240000000     0.511440000000     0.064670000000     0.0765841  
S13      S      0.811680000000     0.576450000000     0.110520000000    -0.0437613  
S14      S      0.325920000000     0.142980000000     0.721300000000     0.0791454  
S15      S      0.319780000000     0.132720000000     0.544640000000    -0.031755   
S16      S      0.338860000000     0.118440000000     0.569720000000    -0.0442739  
S17      S      0.035340000000     0.481790000000     0.893240000000    -0.0374939  
S18      S      0.265400000000     0.169570000000     0.672690000000    -0.0465833  
S19      S      0.471240000000     0.434220000000     0.573520000000    -0.0483046  
S20      S      0.502990000000     0.457610000000     0.363380000000    -0.0419771  
S21      S      0.851550000000     0.211250000000     0.054250000000     0.076897   
S22      S      0.819990000000     0.134730000000     0.219300000000     0.0773357  
S23      S      0.169110000000     0.381290000000     0.718770000000    -0.0474792  
S24      S      0.157760000000     0.274330000000     0.216590000000    -0.0465341  
S25      S      0.087190000000     0.244060000000     0.308060000000    -0.0443214  
S26      S      0.428980000000     0.411090000000     0.463900000000    -0.0436052  
S27      S      0.553510000000     0.067780000000     0.556460000000    -0.0455412  
S28      S      0.525510000000     0.073930000000     0.347980000000    -0.04622    
S29      S      0.766150000000     0.185980000000     0.106960000000    -0.0451526  
S30      S      0.161520000000     0.883210000000     0.703110000000    -0.0438915  
S31      S      0.127910000000     0.844020000000     0.909780000000    -0.0464317  
S32      S      0.436250000000     0.933570000000     0.915370000000    -0.0443098  
S33      S      0.843910000000     0.711720000000     0.743100000000    -0.046111   
S34      S      0.878900000000     0.713970000000     0.535960000000    -0.0460561  
S35      S      0.573530000000     0.578400000000     0.488290000000    -0.045064   
S36      S      0.908170000000     0.652100000000     0.657070000000    -0.0434741  


