data_structure

_audit_creation_method RASPA-1.0
_audit_creation_date 2023-6-5
_audit_author_name 'Poobodin Mano'

_cell_length_a    63.6491
_cell_length_b    63.707
_cell_length_c    38.4816
_cell_angle_alpha 89.9358
_cell_angle_beta  90.0641
_cell_angle_gamma 119.941
_cell_volume      135214

_symmetry_cell_setting          triclinic
_symmetry_space_group_name_Hall 'P 1'
_symmetry_space_group_name_H-M  'P 1'
_symmetry_Int_Tables_number     1

_symmetry_equiv_pos_as_xyz 'x,y,z'

loop_
_atom_site_label
_atom_site_type_symbol
_atom_site_fract_x
_atom_site_fract_y
_atom_site_fract_z
_atom_site_charge
C1       C      0.880440000000     0.692970000000     0.658170000000     0.404738   
C2       C      0.786560000000     0.653270000000     0.625930000000     0.407396   
C3       C      0.824310000000     0.675150000000     0.709140000000     0.407778   
C4       C      0.842790000000     0.670980000000     0.574710000000     0.408261   
C5       C      0.122020000000     0.809270000000     0.783630000000     0.408182   
C6       C      0.216370000000     0.853480000000     0.815440000000     0.408305   
C7       C      0.179680000000     0.838150000000     0.732150000000     0.405931   
C8       C      0.158930000000     0.824450000000     0.867350000000     0.406255   
C9       C      0.453870000000     0.967270000000     0.954450000000     0.404147   
C10      C      0.547850000000     0.013420000000     0.987390000000     0.40544    
C11      C      0.510750000000     0.989630000000     0.903660000000     0.407956   
C12      C      0.490190000000     0.990670000000     0.038020000000     0.407954   
C13      C      0.215540000000     0.362960000000     0.317600000000     0.405265   
C14      C      0.121810000000     0.315760000000     0.283120000000     0.405475   
C15      C      0.157720000000     0.336920000000     0.367710000000     0.405659   
C16      C      0.179610000000     0.342000000000     0.233030000000     0.405379   
C17      C      0.787930000000     0.134030000000     0.118660000000     0.406742   
C18      C      0.882000000000     0.184530000000     0.152120000000     0.408089   
C19      C      0.845720000000     0.167920000000     0.067840000000     0.405567   
C20      C      0.823840000000     0.150620000000     0.202530000000     0.407513   
C21      C      0.454750000000     0.482870000000     0.452500000000     0.40799    
C22      C      0.548090000000     0.533250000000     0.489190000000     0.404036   
C23      C      0.513790000000     0.515970000000     0.403630000000     0.407861   
C24      C      0.489680000000     0.500650000000     0.538020000000     0.407761   
C25      C      0.143340000000     0.358010000000     0.818540000000     0.406681   
C26      C      0.194750000000     0.315860000000     0.782660000000     0.407129   
C27      C      0.178010000000     0.333800000000     0.867610000000     0.407605   
C28      C      0.160020000000     0.340110000000     0.733560000000     0.407622   
C29      C      0.311530000000     0.193320000000     0.649040000000     0.404989   
C30      C      0.353810000000     0.141490000000     0.617730000000     0.404639   
C31      C      0.329490000000     0.155320000000     0.700450000000     0.407874   
C32      C      0.335670000000     0.179480000000     0.566280000000     0.408023   
C33      C      0.026400000000     0.480770000000     0.951450000000     0.404495   
C34      C      0.982900000000     0.530470000000     0.988470000000     0.403308   
C35      C      0.001970000000     0.515200000000     0.903060000000     0.408745   
C36      C      0.007290000000     0.496010000000     0.036910000000     0.408692   
C37      C      0.650040000000     0.865270000000     0.318090000000     0.405376   
C38      C      0.692320000000     0.813160000000     0.287980000000     0.407102   
C39      C      0.669820000000     0.828620000000     0.370180000000     0.405107   
C40      C      0.672910000000     0.849890000000     0.235350000000     0.407954   
C41      C      0.862160000000     0.648430000000     0.124360000000     0.40809    
C42      C      0.813960000000     0.693900000000     0.159810000000     0.405348   
C43      C      0.829640000000     0.674560000000     0.074810000000     0.405801   
C44      C      0.846540000000     0.668210000000     0.209170000000     0.405155   
C45      C      0.524200000000     0.977670000000     0.453460000000     0.407865   
C46      C      0.472720000000     0.020120000000     0.487450000000     0.407648   
C47      C      0.491560000000     0.002960000000     0.403110000000     0.405155   
C48      C      0.505770000000     0.994880000000     0.537980000000     0.405703   
C49      C      0.309200000000     0.119930000000     0.151420000000     0.405486   
C50      C      0.351920000000     0.213390000000     0.115880000000     0.408038   
C51      C      0.334640000000     0.178230000000     0.200710000000     0.405212   
C52      C      0.326710000000     0.155050000000     0.066250000000     0.405769   
C53      C      0.474270000000     0.454070000000     0.987350000000     0.405407   
C54      C      0.523110000000     0.548040000000     0.954150000000     0.407836   
C55      C      0.508040000000     0.511610000000     0.037940000000     0.405178   
C56      C      0.489440000000     0.490390000000     0.903310000000     0.40568    
C57      C      0.193340000000     0.879940000000     0.282550000000     0.407711   
C58      C      0.143890000000     0.786440000000     0.318180000000     0.404719   
C59      C      0.160680000000     0.821120000000     0.232980000000     0.408615   
C60      C      0.175880000000     0.844680000000     0.367500000000     0.408667   
C61      C      0.979590000000     0.453760000000     0.486640000000     0.404296   
C62      C      0.022030000000     0.547610000000     0.453390000000     0.408862   
C63      C      0.003610000000     0.511320000000     0.537350000000     0.40629    
C64      C      0.998100000000     0.490160000000     0.402350000000     0.404707   
C65      C      0.864480000000     0.213970000000     0.618060000000     0.407394   
C66      C      0.813550000000     0.120430000000     0.653070000000     0.405705   
C67      C      0.830650000000     0.155750000000     0.568140000000     0.406054   
C68      C      0.847380000000     0.178650000000     0.702610000000     0.407772   
C69      C      0.644680000000     0.787170000000     0.820830000000     0.404315   
C70      C      0.687480000000     0.880410000000     0.783990000000     0.407618   
C71      C      0.670230000000     0.845760000000     0.869400000000     0.404804   
C72      C      0.661820000000     0.821340000000     0.735340000000     0.408123   
C73      C      0.698960000000     0.941020000000     0.755570000000    -0.130633   
C74      C      0.812260000000     0.083580000000     0.668560000000     0.0717263  
C75      C      0.776350000000     0.086060000000     0.670670000000     0.0717117  
C76      C      0.799790000000     0.059880000000     0.681200000000    -0.0936223  
C77      C      0.772710000000     0.016840000000     0.729220000000    -0.037589   
C78      C      0.760270000000     0.993510000000     0.743240000000    -0.0331485  
C79      C      0.761760000000     0.024190000000     0.703900000000    -0.00618204 
C80      C      0.763310000000     0.062370000000     0.683320000000    -0.0934475  
C81      C      0.736570000000     0.976950000000     0.732300000000    -0.014084   
C82      C      0.735540000000     0.939050000000     0.752280000000    -0.103648   
C83      C      0.725570000000     0.984320000000     0.707090000000    -0.0329945  
C84      C      0.723030000000     0.915540000000     0.765330000000     0.0747289  
C85      C      0.686600000000     0.917310000000     0.769160000000     0.150292   
C86      C      0.738020000000     0.007670000000     0.693050000000    -0.0376307  
C87      C      0.775070000000     0.049060000000     0.689110000000     0.0484902  
C88      C      0.723510000000     0.952010000000     0.746880000000     0.0645898  
C89      C      0.660350000000     0.907530000000     0.779350000000    -0.2175     
C90      C      0.913910000000     0.274410000000     0.590260000000    -0.130585   
C91      C      0.943990000000     0.416520000000     0.500420000000     0.0717396  
C92      C      0.982550000000     0.419550000000     0.504830000000     0.0706039  
C93      C      0.932750000000     0.392720000000     0.512690000000    -0.0931768  
C94      C      0.913100000000     0.338760000000     0.522600000000    -0.0376987  
C95      C      0.901940000000     0.315470000000     0.536830000000    -0.0328715  
C96      C      0.935150000000     0.357200000000     0.536170000000    -0.00591798 
C97      C      0.971900000000     0.395800000000     0.517240000000    -0.0928177  
C98      C      0.912550000000     0.310070000000     0.565000000000    -0.0141297  
C99      C      0.875460000000     0.272530000000     0.585330000000    -0.103615   
C100     C      0.934660000000     0.328480000000     0.578440000000    -0.0329236  
C101     C      0.864290000000     0.249150000000     0.598900000000     0.0748683  
C102     C      0.902380000000     0.250880000000     0.604450000000     0.149629   
C103     C      0.945830000000     0.351770000000     0.564190000000    -0.0378213  
C104     C      0.946730000000     0.382140000000     0.521640000000     0.0481913  
C105     C      0.900490000000     0.285340000000     0.580340000000     0.0645039  
C106     C      0.918680000000     0.241260000000     0.616390000000    -0.215988   
C107     C      0.032900000000     0.608120000000     0.425880000000    -0.131285   
C108     C      0.143480000000     0.750060000000     0.333950000000     0.0712242  
C109     C      0.107190000000     0.751830000000     0.336670000000     0.0706132  
C110     C      0.131500000000     0.726490000000     0.347120000000    -0.0935272  
C111     C      0.105650000000     0.683900000000     0.396230000000    -0.0375309  
C112     C      0.093690000000     0.660760000000     0.410940000000    -0.0330073  
C113     C      0.094100000000     0.690700000000     0.371120000000    -0.00620105 
C114     C      0.094660000000     0.728280000000     0.349890000000    -0.0938234  
C115     C      0.069880000000     0.643870000000     0.400930000000    -0.0140971  
C116     C      0.069560000000     0.606380000000     0.421280000000    -0.103746   
C117     C      0.058280000000     0.650670000000     0.375900000000    -0.033013   
C118     C      0.057360000000     0.582940000000     0.434630000000     0.0753337  
C119     C      0.020910000000     0.584530000000     0.439870000000     0.151904   
C120     C      0.070250000000     0.673820000000     0.361170000000    -0.0377254  
C121     C      0.106860000000     0.715390000000     0.355670000000     0.0482268  
C122     C      0.057280000000     0.619130000000     0.416230000000     0.0650483  
C123     C      0.994920000000     0.574780000000     0.451380000000    -0.218828   
C124     C      0.537860000000     0.609850000000     0.927280000000    -0.13152    
C125     C      0.646970000000     0.752230000000     0.837260000000     0.0710521  
C126     C      0.609080000000     0.750870000000     0.837470000000     0.0710487  
C127     C      0.636000000000     0.728360000000     0.849390000000    -0.0931244  
C128     C      0.610560000000     0.683490000000     0.895040000000    -0.0373643  
C129     C      0.598660000000     0.660210000000     0.909440000000    -0.0331706  
C130     C      0.598960000000     0.690370000000     0.870070000000    -0.00619363 
C131     C      0.597590000000     0.727120000000     0.849790000000    -0.0937616  
C132     C      0.574840000000     0.643410000000     0.899390000000    -0.0143069  
C133     C      0.572570000000     0.604990000000     0.919790000000    -0.103707   
C134     C      0.563420000000     0.650100000000     0.874000000000    -0.0332921  
C135     C      0.559380000000     0.581710000000     0.933650000000     0.0746899  
C136     C      0.524980000000     0.586580000000     0.942040000000     0.150915   
C137     C      0.575360000000     0.673240000000     0.859390000000    -0.0378015  
C138     C      0.611010000000     0.715520000000     0.856060000000     0.0480287  
C139     C      0.561640000000     0.619090000000     0.915710000000     0.065093   
C140     C      0.499830000000     0.578910000000     0.955680000000    -0.217225   
C141     C      0.242450000000     0.940900000000     0.255960000000    -0.131245   
C142     C      0.273440000000     0.083150000000     0.166120000000     0.0719518  
C143     C      0.311730000000     0.085500000000     0.169940000000     0.0715563  
C144     C      0.261960000000     0.059460000000     0.178760000000    -0.0935205  
C145     C      0.244790000000     0.016310000000     0.226700000000    -0.0376095  
C146     C      0.233500000000     0.992950000000     0.240660000000    -0.0330735  
C147     C      0.263710000000     0.023680000000     0.202450000000    -0.00609434 
C148     C      0.300800000000     0.061800000000     0.182700000000    -0.0930017  
C149     C      0.240890000000     0.976390000000     0.230780000000    -0.0143346  
C150     C      0.203750000000     0.938320000000     0.249710000000    -0.103877   
C151     C      0.259840000000     0.983750000000     0.206610000000    -0.0330205  
C152     C      0.192700000000     0.914830000000     0.262910000000     0.0743666  
C153     C      0.231050000000     0.917290000000     0.269810000000     0.150333   
C154     C      0.271120000000     0.007120000000     0.192590000000    -0.0378817  
C155     C      0.275640000000     0.048560000000     0.187630000000     0.0483767  
C156     C      0.228850000000     0.951530000000     0.245610000000     0.0646023  
C157     C      0.247560000000     0.908060000000     0.282340000000    -0.217133   
C158     C      0.363010000000     0.274050000000     0.088760000000    -0.13082    
C159     C      0.473640000000     0.417140000000     0.000210000000     0.0718149  
C160     C      0.437770000000     0.419430000000     0.006160000000     0.0718959  
C161     C      0.461610000000     0.393290000000     0.012370000000    -0.0933654  
C162     C      0.427990000000     0.339090000000     0.022240000000    -0.0375376  
C163     C      0.416020000000     0.315660000000     0.036030000000    -0.0329956  
C164     C      0.424320000000     0.357340000000     0.036420000000    -0.00618103 
C165     C      0.425220000000     0.395640000000     0.018430000000    -0.0935393  
C166     C      0.400100000000     0.309940000000     0.064330000000    -0.0140391  
C167     C      0.399480000000     0.272050000000     0.083420000000    -0.103549   
C168     C      0.396450000000     0.328190000000     0.078520000000    -0.0330463  
C169     C      0.387220000000     0.248550000000     0.096570000000     0.0749747  
C170     C      0.350920000000     0.250380000000     0.102430000000     0.150963   
C171     C      0.408410000000     0.351600000000     0.064730000000    -0.0376189  
C172     C      0.437170000000     0.382330000000     0.022040000000     0.0485533  
C173     C      0.387360000000     0.285010000000     0.078970000000     0.0648238  
C174     C      0.324920000000     0.240660000000     0.113900000000    -0.217725   
C175     C      0.638720000000     0.803350000000     0.645710000000    -0.13096    
C176     C      0.688430000000     0.837190000000     0.426040000000     0.0717789  
C177     C      0.647490000000     0.806040000000     0.419700000000     0.0712058  
C178     C      0.687170000000     0.833440000000     0.461910000000    -0.0941667  
C179     C      0.679840000000     0.809710000000     0.534490000000    -0.0382214  
C180     C      0.678520000000     0.808470000000     0.570760000000    -0.0329507  
C181     C      0.663240000000     0.813400000000     0.515260000000    -0.00647825 
C182     C      0.645450000000     0.802200000000     0.455590000000    -0.0944366  
C183     C      0.660880000000     0.811470000000     0.588640000000    -0.0140396  
C184     C      0.682050000000     0.821690000000     0.646530000000    -0.103188   
C185     C      0.644120000000     0.814910000000     0.569080000000    -0.0326462  
C186     C      0.681610000000     0.823390000000     0.682570000000     0.0756953  
C187     C      0.638650000000     0.805330000000     0.682140000000     0.151401   
C188     C      0.645150000000     0.815630000000     0.532810000000    -0.0380723  
C189     C      0.665390000000     0.816100000000     0.477050000000     0.0487907  
C190     C      0.660520000000     0.811980000000     0.627430000000     0.064153   
C191     C      0.614180000000     0.794280000000     0.699890000000    -0.218755   
C192     C      0.696010000000     0.871260000000     0.146360000000    -0.132003   
C193     C      0.652140000000     0.848320000000     0.922230000000     0.0709963  
C194     C      0.693020000000     0.857290000000     0.921950000000     0.0717376  
C195     C      0.652870000000     0.851180000000     0.958290000000    -0.0928116  
C196     C      0.660670000000     0.866370000000     0.033810000000    -0.037406   
C197     C      0.660530000000     0.866560000000     0.070170000000    -0.0336972  
C198     C      0.674860000000     0.858730000000     0.015530000000    -0.00617628 
C199     C      0.694550000000     0.860860000000     0.957860000000    -0.0931189  
C200     C      0.674980000000     0.859650000000     0.089000000000    -0.0146014  
C201     C      0.652830000000     0.845240000000     0.145170000000    -0.104456   
C202     C      0.689490000000     0.852480000000     0.071000000000    -0.0333855  
C203     C      0.653030000000     0.842900000000     0.181170000000     0.075432   
C204     C      0.695890000000     0.869040000000     0.182770000000     0.150747   
C205     C      0.689250000000     0.851780000000     0.034750000000    -0.0372465  
C206     C      0.674160000000     0.857220000000     0.976770000000     0.047859   
C207     C      0.674520000000     0.859110000000     0.127420000000     0.0653745  
C208     C      0.720310000000     0.881910000000     0.200810000000    -0.217638   
C209     C      0.703000000000     0.763330000000     0.261180000000    -0.131102   
C210     C      0.813890000000     0.730120000000     0.174980000000     0.0717191  
C211     C      0.777380000000     0.692360000000     0.177770000000     0.0719509  
C212     C      0.802020000000     0.742000000000     0.187570000000    -0.093533   
C213     C      0.775860000000     0.759200000000     0.235570000000    -0.0376492  
C214     C      0.763880000000     0.770610000000     0.249520000000    -0.0331517  
C215     C      0.764580000000     0.741000000000     0.210270000000    -0.00615325 
C216     C      0.764940000000     0.703670000000     0.190310000000    -0.0933704  
C217     C      0.740350000000     0.764120000000     0.238470000000    -0.0141891  
C218     C      0.740160000000     0.801340000000     0.258990000000    -0.104071   
C219     C      0.729060000000     0.745910000000     0.213170000000    -0.0330572  
C220     C      0.727910000000     0.812740000000     0.271670000000     0.0742841  
C221     C      0.690950000000     0.775070000000     0.274460000000     0.150914   
C222     C      0.741030000000     0.734470000000     0.199260000000    -0.0377399  
C223     C      0.777300000000     0.728760000000     0.195710000000     0.048495   
C224     C      0.727670000000     0.776420000000     0.253060000000     0.0645441  
C225     C      0.664620000000     0.759090000000     0.284610000000    -0.218141   
C226     C      0.540660000000     0.932640000000     0.422550000000    -0.131538   
C227     C      0.652480000000     0.902260000000     0.336230000000     0.0713961  
C228     C      0.614160000000     0.866730000000     0.330260000000     0.0718697  
C229     C      0.641400000000     0.915140000000     0.348050000000    -0.0931019  
C230     C      0.614320000000     0.933060000000     0.393130000000    -0.037397   
C231     C      0.601940000000     0.943810000000     0.408010000000    -0.0331908  
C232     C      0.603860000000     0.916320000000     0.365750000000    -0.00617403 
C233     C      0.602540000000     0.878970000000     0.342190000000    -0.0935265  
C234     C      0.578750000000     0.937850000000     0.396080000000    -0.0143702  
C235     C      0.575350000000     0.972550000000     0.420130000000    -0.103748   
C236     C      0.568560000000     0.921630000000     0.368210000000    -0.0333236  
C237     C      0.561450000000     0.981680000000     0.434590000000     0.0745627  
C238     C      0.527050000000     0.942010000000     0.438010000000     0.150928   
C239     C      0.581010000000     0.911110000000     0.353090000000    -0.0376357  
C240     C      0.616120000000     0.903450000000     0.351530000000     0.0482345  
C241     C      0.564800000000     0.947890000000     0.413150000000     0.065083   
C242     C      0.501490000000     0.923700000000     0.449140000000    -0.217157   
C243     C      0.981170000000     0.511050000000     0.812250000000    -0.133218   
C244     C      0.025540000000     0.522380000000     0.590700000000     0.0719329  
C245     C      0.984550000000     0.513060000000     0.589650000000     0.070743   
C246     C      0.026510000000     0.525760000000     0.626630000000    -0.0932178  
C247     C      0.019970000000     0.516650000000     0.703640000000    -0.0371173  
C248     C      0.019550000000     0.517370000000     0.739880000000    -0.033122   
C249     C      0.005950000000     0.523630000000     0.683540000000    -0.00533358 
C250     C      0.984730000000     0.515790000000     0.625680000000    -0.0939453  
C251     C      0.004770000000     0.524620000000     0.756950000000    -0.013736   
C252     C      0.024520000000     0.535630000000     0.815220000000    -0.104704   
C253     C      0.990800000000     0.531680000000     0.737190000000    -0.0341969  
C254     C      0.023170000000     0.533410000000     0.851280000000     0.076354   
C255     C      0.980160000000     0.508920000000     0.848700000000     0.151974   
C256     C      0.991570000000     0.531440000000     0.700870000000    -0.0382694  
C257     C      0.005810000000     0.521990000000     0.644830000000     0.0488413  
C258     C      0.003450000000     0.524010000000     0.795340000000     0.0666039  
C259     C      0.955250000000     0.495640000000     0.865150000000    -0.219039   
C260     C      0.992510000000     0.467730000000     0.124140000000    -0.13352    
C261     C      0.979260000000     0.486020000000     0.347330000000     0.0712789  
C262     C      0.015560000000     0.484300000000     0.351090000000     0.0720228  
C263     C      0.979610000000     0.484750000000     0.311150000000    -0.0932502  
C264     C      0.998240000000     0.502050000000     0.237550000000    -0.0415208  
C265     C      0.000520000000     0.503360000000     0.201430000000    -0.0292     
C266     C      0.000160000000     0.484100000000     0.256170000000    -0.00290959 
C267     C      0.016240000000     0.482600000000     0.314950000000    -0.0919218  
C268     C      0.004410000000     0.486530000000     0.183160000000    -0.0164919  
C269     C      0.022270000000     0.509930000000     0.128670000000    -0.105062   
C270     C      0.006050000000     0.468390000000     0.201680000000    -0.031478   
C271     C      0.022960000000     0.511560000000     0.092560000000     0.0764905  
C272     C      0.993450000000     0.469710000000     0.087660000000     0.151829   
C273     C      0.004190000000     0.467330000000     0.237960000000    -0.0396654  
C274     C      0.998440000000     0.483390000000     0.294570000000     0.0459494  
C275     C      0.006570000000     0.488010000000     0.144810000000     0.0674873  
C276     C      0.978640000000     0.446610000000     0.067170000000    -0.219056   
C277     C      0.876400000000     0.601170000000     0.096520000000    -0.131426   
C278     C      0.985010000000     0.567500000000     0.005240000000     0.0698028  
C279     C      0.947160000000     0.531030000000     0.005090000000     0.0705796  
C280     C      0.974000000000     0.580310000000     0.017580000000    -0.0927721  
C281     C      0.948740000000     0.599630000000     0.063590000000    -0.0374934  
C282     C      0.936980000000     0.611120000000     0.078130000000    -0.033338   
C283     C      0.937000000000     0.581220000000     0.038620000000    -0.00614712 
C284     C      0.935620000000     0.543220000000     0.017660000000    -0.0934561  
C285     C      0.913170000000     0.604300000000     0.068260000000    -0.0141859  
C286     C      0.911210000000     0.640580000000     0.088930000000    -0.103683   
C287     C      0.901570000000     0.586220000000     0.042940000000    -0.033379   
C288     C      0.898210000000     0.650780000000     0.103140000000     0.0746017  
C289     C      0.863720000000     0.611680000000     0.111640000000     0.150814   
C290     C      0.913380000000     0.574900000000     0.028180000000    -0.0376619  
C291     C      0.949020000000     0.568160000000     0.024260000000     0.0477376  
C292     C      0.900140000000     0.615570000000     0.084760000000     0.064913   
C293     C      0.838630000000     0.594320000000     0.125560000000    -0.217216   
C294     C      0.304390000000     0.132400000000     0.788160000000    -0.131944   
C295     C      0.345100000000     0.152770000000     0.013590000000     0.0715655  
C296     C      0.304330000000     0.144140000000     0.013290000000     0.0716834  
C297     C      0.344640000000     0.150130000000     0.977520000000    -0.0927774  
C298     C      0.337500000000     0.135390000000     0.901950000000    -0.0374091  
C299     C      0.338200000000     0.135610000000     0.865610000000    -0.0335654  
C300     C      0.323200000000     0.143030000000     0.919930000000    -0.0060948  
C301     C      0.303070000000     0.140810000000     0.977310000000    -0.0929948  
C302     C      0.324200000000     0.142920000000     0.846460000000    -0.0145853  
C303     C      0.347550000000     0.158160000000     0.791360000000    -0.104262   
C304     C      0.309470000000     0.149980000000     0.864140000000    -0.0332768  
C305     C      0.348160000000     0.161120000000     0.755420000000     0.0755861  
C306     C      0.305320000000     0.135230000000     0.751800000000     0.150947   
C307     C      0.309150000000     0.150280000000     0.900400000000    -0.0373204  
C308     C      0.323540000000     0.144350000000     0.958700000000     0.0479281  
C309     C      0.325460000000     0.144110000000     0.808090000000     0.0654408  
C310     C      0.281320000000     0.122740000000     0.732650000000    -0.217887   
C311     C      0.360070000000     0.202580000000     0.478310000000    -0.131857   
C312     C      0.316590000000     0.180610000000     0.253700000000     0.0710676  
C313     C      0.357560000000     0.189900000000     0.253140000000     0.0718124  
C314     C      0.317430000000     0.183540000000     0.289760000000    -0.0927187  
C315     C      0.325390000000     0.198880000000     0.365200000000    -0.0374057  
C316     C      0.325210000000     0.198940000000     0.401560000000    -0.0335478  
C317     C      0.339660000000     0.191380000000     0.346850000000    -0.00608307 
C318     C      0.359200000000     0.193530000000     0.289030000000    -0.093024   
C319     C      0.339700000000     0.192050000000     0.420340000000    -0.0145342  
C320     C      0.316870000000     0.176890000000     0.475820000000    -0.104328   
C321     C      0.354400000000     0.185150000000     0.402260000000    -0.0332881  
C322     C      0.316570000000     0.173850000000     0.511710000000     0.0756674  
C323     C      0.359440000000     0.199680000000     0.514660000000     0.15096    
C324     C      0.354210000000     0.184580000000     0.366000000000    -0.0372291  
C325     C      0.338840000000     0.189790000000     0.308100000000     0.0478547  
C326     C      0.338810000000     0.190930000000     0.458740000000     0.0653907  
C327     C      0.383590000000     0.212100000000     0.533440000000    -0.218356   
C328     C      0.422570000000     0.030600000000     0.513380000000    -0.131057   
C329     C      0.389650000000     0.139530000000     0.607140000000     0.0706106  
C330     C      0.351150000000     0.104920000000     0.597260000000     0.0710709  
C331     C      0.401200000000     0.127220000000     0.595040000000    -0.093721   
C332     C      0.420890000000     0.093090000000     0.583970000000    -0.0376571  
C333     C      0.432590000000     0.081490000000     0.569700000000    -0.0331143  
C334     C      0.399500000000     0.090320000000     0.568910000000    -0.00629199 
C335     C      0.362130000000     0.092060000000     0.585010000000    -0.0934908  
C336     C      0.423160000000     0.066800000000     0.540070000000    -0.0141318  
C337     C      0.460860000000     0.066820000000     0.521480000000    -0.103522   
C338     C      0.401690000000     0.063880000000     0.525150000000    -0.0331203  
C339     C      0.472430000000     0.054970000000     0.507890000000     0.0750721  
C340     C      0.434500000000     0.018970000000     0.499300000000     0.150971   
C341     C      0.390010000000     0.075510000000     0.539380000000    -0.0377818  
C342     C      0.387450000000     0.103270000000     0.583400000000     0.0480613  
C343     C      0.435700000000     0.054570000000     0.524830000000     0.0647855  
C344     C      0.418560000000     0.993510000000     0.485630000000    -0.217455   
C345     C      0.093740000000     0.368820000000     0.846680000000    -0.130805   
C346     C      0.062310000000     0.479720000000     0.937260000000     0.0712374  
C347     C      0.023950000000     0.444130000000     0.931880000000     0.07077    
C348     C      0.073820000000     0.467510000000     0.924610000000    -0.0933616  
C349     C      0.094030000000     0.433670000000     0.914060000000    -0.0378122  
C350     C      0.105370000000     0.421690000000     0.899850000000    -0.0331723  
C351     C      0.071980000000     0.430040000000     0.900360000000    -0.00619368 
C352     C      0.034880000000     0.431380000000     0.919120000000    -0.0935947  
C353     C      0.094920000000     0.405790000000     0.871620000000    -0.0142811  
C354     C      0.132100000000     0.405380000000     0.851500000000    -0.103997   
C355     C      0.072820000000     0.402090000000     0.857990000000    -0.0332436  
C356     C      0.143350000000     0.393210000000     0.837970000000     0.0737395  
C357     C      0.105340000000     0.356830000000     0.832630000000     0.149618   
C358     C      0.061490000000     0.414080000000     0.872190000000    -0.0378854  
C359     C      0.060100000000     0.443090000000     0.915040000000     0.0480045  
C360     C      0.107070000000     0.393150000000     0.856430000000     0.0642287  
C361     C      0.089110000000     0.330830000000     0.821260000000    -0.217252   
C362     C      0.244470000000     0.305010000000     0.755630000000    -0.130564   
C363     C      0.275740000000     0.195210000000     0.660420000000     0.0707655  
C364     C      0.314290000000     0.229930000000     0.669530000000     0.0711926  
C365     C      0.264270000000     0.207440000000     0.673130000000    -0.0941919  
C366     C      0.246720000000     0.232100000000     0.723230000000    -0.0376066  
C367     C      0.235490000000     0.244040000000     0.737850000000    -0.0332976  
C368     C      0.266170000000     0.244180000000     0.699990000000    -0.00637914 
C369     C      0.303390000000     0.242740000000     0.682250000000    -0.0935772  
C370     C      0.243390000000     0.268350000000     0.729520000000    -0.0140256  
C371     C      0.206000000000     0.268820000000     0.748530000000    -0.10358    
C372     C      0.262920000000     0.280480000000     0.706340000000    -0.0331046  
C373     C      0.194680000000     0.280870000000     0.762180000000     0.0747821  
C374     C      0.232760000000     0.316860000000     0.769780000000     0.149593   
C375     C      0.274220000000     0.268540000000     0.691800000000    -0.0377577  
C376     C      0.278100000000     0.231380000000     0.684680000000     0.0483142  
C377     C      0.231140000000     0.280910000000     0.744690000000     0.0642174  
C378     C      0.248880000000     0.342380000000     0.783130000000    -0.21621    
C379     C      0.482280000000     0.510760000000     0.631130000000    -0.130356   
C380     C      0.502690000000     0.485920000000     0.847390000000     0.0718518  
C381     C      0.464550000000     0.483590000000     0.853480000000     0.0713117  
C382     C      0.499890000000     0.483910000000     0.811350000000    -0.0931969  
C383     C      0.486360000000     0.470520000000     0.736190000000    -0.0375467  
C384     C      0.486200000000     0.472310000000     0.700010000000    -0.0329165  
C385     C      0.476660000000     0.481640000000     0.757250000000    -0.00603725 
C386     C      0.461010000000     0.481230000000     0.817530000000    -0.0933225  
C387     C      0.476050000000     0.485010000000     0.683840000000    -0.0139457  
C388     C      0.476080000000     0.470780000000     0.622960000000    -0.103603   
C389     C      0.465380000000     0.495210000000     0.704850000000    -0.0332172  
C390     C      0.479690000000     0.475320000000     0.587400000000     0.074469   
C391     C      0.485590000000     0.514990000000     0.595090000000     0.150054   
C392     C      0.465820000000     0.493690000000     0.741040000000    -0.0376963  
C393     C      0.479000000000     0.481860000000     0.795830000000     0.0480091  
C394     C      0.477780000000     0.488720000000     0.645450000000     0.0641464  
C395     C      0.491110000000     0.539810000000     0.582580000000    -0.217282   
C396     C      0.531760000000     0.510370000000     0.314310000000    -0.131032   
C397     C      0.497860000000     0.521730000000     0.092580000000     0.0716042  
C398     C      0.530230000000     0.513470000000     0.088830000000     0.0718934  
C399     C      0.500970000000     0.524730000000     0.128540000000    -0.0942805  
C400     C      0.523620000000     0.542550000000     0.201720000000    -0.0381603  
C401     C      0.524820000000     0.543020000000     0.238030000000    -0.0329129  
C402     C      0.520720000000     0.522280000000     0.183320000000    -0.00642015 
C403     C      0.533460000000     0.515800000000     0.124800000000    -0.0942538  
C404     C      0.522590000000     0.522970000000     0.256740000000    -0.0139136  
C405     C      0.512330000000     0.534390000000     0.314240000000    -0.1032     
C406     C      0.519740000000     0.502720000000     0.238000000000    -0.0326536  
C407     C      0.510940000000     0.532770000000     0.350360000000     0.0756755  
C408     C      0.530070000000     0.508830000000     0.350790000000     0.151919   
C409     C      0.519070000000     0.502500000000     0.201720000000    -0.0379892  
C410     C      0.518610000000     0.521290000000     0.145020000000     0.0489141  
C411     C      0.522390000000     0.522740000000     0.295560000000     0.0642264  
C412     C      0.541880000000     0.496290000000     0.369020000000    -0.219035   
C413     C      0.873880000000     0.190580000000     0.790920000000    -0.131885   
C414     C      0.850450000000     0.154120000000     0.012490000000     0.0714298  
C415     C      0.852430000000     0.192180000000     0.017330000000     0.0715129  
C416     C      0.852420000000     0.156490000000     0.976410000000    -0.0945933  
C417     C      0.836880000000     0.159660000000     0.902330000000    -0.0376676  
C418     C      0.836420000000     0.161470000000     0.866230000000    -0.0330511  
C419     C      0.854490000000     0.178980000000     0.922080000000    -0.00673583 
C420     C      0.854830000000     0.195300000000     0.981320000000    -0.0941802  
C421     C      0.853770000000     0.182500000000     0.849110000000    -0.0147482  
C422     C      0.831620000000     0.178360000000     0.793780000000    -0.104512   
C423     C      0.871580000000     0.201760000000     0.868760000000    -0.0333512  
C424     C      0.830750000000     0.178100000000     0.757620000000     0.0758514  
C425     C      0.872670000000     0.190260000000     0.754370000000     0.151103   
C426     C      0.871790000000     0.200110000000     0.905020000000    -0.0382275  
C427     C      0.854310000000     0.177100000000     0.960440000000     0.0487847  
C428     C      0.853170000000     0.184080000000     0.810770000000     0.0653185  
C429     C      0.896190000000     0.198840000000     0.734790000000    -0.217229   
C430     C      0.807860000000     0.155270000000     0.293450000000    -0.132451   
C431     C      0.841320000000     0.144370000000     0.514970000000     0.0717877  
C432     C      0.809600000000     0.153630000000     0.515870000000     0.0717033  
C433     C      0.838810000000     0.140840000000     0.479070000000    -0.0930899  
C434     C      0.841260000000     0.149820000000     0.402050000000    -0.0372828  
C435     C      0.840080000000     0.149080000000     0.365810000000    -0.0331587  
C436     C      0.820280000000     0.142790000000     0.422120000000    -0.0060196  
C437     C      0.806960000000     0.150740000000     0.479870000000    -0.0927925  
C438     C      0.818010000000     0.141740000000     0.348730000000    -0.0147093  
C439     C      0.826670000000     0.130710000000     0.290490000000    -0.105186   
C440     C      0.797000000000     0.134620000000     0.368480000000    -0.0334295  
C441     C      0.827370000000     0.132820000000     0.254420000000     0.0753125  
C442     C      0.808810000000     0.157300000000     0.257000000000     0.151758   
C443     C      0.798060000000     0.134890000000     0.404790000000    -0.0375774  
C444     C      0.821830000000     0.144520000000     0.460820000000     0.0481173  
C445     C      0.817250000000     0.142340000000     0.310360000000     0.0655915  
C446     C      0.797090000000     0.170530000000     0.240570000000    -0.21895    
C447     C      0.163340000000     0.362340000000     0.643830000000    -0.131112   
C448     C      0.148800000000     0.316400000000     0.422220000000     0.0719945  
C449     C      0.155350000000     0.356420000000     0.419090000000     0.0721399  
C450     C      0.146350000000     0.316340000000     0.458320000000    -0.093923   
C451     C      0.129560000000     0.320610000000     0.532750000000    -0.0382134  
C452     C      0.129880000000     0.321570000000     0.569070000000    -0.0328072  
C453     C      0.149140000000     0.338230000000     0.513490000000    -0.00630722 
C454     C      0.153540000000     0.357150000000     0.455160000000    -0.0942279  
C455     C      0.150070000000     0.339900000000     0.586930000000    -0.0140947  
C456     C      0.140330000000     0.318900000000     0.644990000000    -0.10339    
C457     C      0.169660000000     0.357470000000     0.567310000000    -0.0325015  
C458     C      0.142660000000     0.319620000000     0.681050000000     0.0751546  
C459     C      0.165630000000     0.362680000000     0.680230000000     0.151267   
C460     C      0.169070000000     0.356780000000     0.531050000000    -0.0380889  
C461     C      0.149260000000     0.337070000000     0.475140000000     0.0490088  
C462     C      0.151100000000     0.340380000000     0.625720000000     0.0640972  
C463     C      0.177940000000     0.387220000000     0.697800000000    -0.218639   
C464     C      0.205220000000     0.348100000000     0.955530000000    -0.131741   
C465     C      0.183340000000     0.360210000000     0.177640000000     0.0720646  
C466     C      0.186810000000     0.324940000000     0.182390000000     0.071773   
C467     C      0.184970000000     0.359750000000     0.141520000000    -0.0940792  
C468     C      0.168920000000     0.340760000000     0.067900000000    -0.0376044  
C469     C      0.168120000000     0.338600000000     0.031780000000    -0.0330139  
C470     C      0.187070000000     0.339550000000     0.087080000000    -0.0065562  
C471     C      0.188860000000     0.324170000000     0.146310000000    -0.0937357  
C472     C      0.185650000000     0.335510000000     0.014030000000    -0.0147037  
C473     C      0.163140000000     0.317720000000     0.958880000000    -0.104734   
C474     C      0.203960000000     0.334490000000     0.033120000000    -0.0332837  
C475     C      0.161960000000     0.317360000000     0.922750000000     0.0756635  
C476     C      0.203710000000     0.347460000000     0.919000000000     0.150832   
C477     C      0.204520000000     0.336260000000     0.069410000000    -0.0380379  
C478     C      0.187380000000     0.341390000000     0.125460000000     0.0488756  
C479     C      0.184750000000     0.333580000000     0.975650000000     0.0651888  
C480     C      0.227010000000     0.362730000000     0.899120000000    -0.217266   
C481     C      0.944520000000     0.201110000000     0.178840000000    -0.130353   
C482     C      0.085890000000     0.315890000000     0.265600000000     0.071651   
C483     C      0.086550000000     0.279010000000     0.266860000000     0.0722563  
C484     C      0.062230000000     0.303890000000     0.252490000000    -0.0935033  
C485     C      0.007500000000     0.269800000000     0.242470000000    -0.0360545  
C486     C      0.984160000000     0.256880000000     0.228350000000    -0.0345385  
C487     C      0.026120000000     0.266020000000     0.230150000000    -0.0070845  
C488     C      0.063050000000     0.266530000000     0.253510000000    -0.0939693  
C489     C      0.979000000000     0.240050000000     0.201430000000    -0.0131938  
C490     C      0.939280000000     0.235760000000     0.182470000000    -0.103095   
C491     C      0.997850000000     0.236750000000     0.188630000000    -0.0347628  
C492     C      0.915670000000     0.221650000000     0.170120000000     0.0741535  
C493     C      0.920750000000     0.187150000000     0.165940000000     0.149808   
C494     C      0.021080000000     0.249500000000     0.202920000000    -0.0361772  
C495     C      0.050710000000     0.278990000000     0.245770000000     0.0491237  
C496     C      0.953970000000     0.225510000000     0.187320000000     0.0638466  
C497     C      0.912650000000     0.161040000000     0.156890000000    -0.216604   
C498     C      0.394350000000     0.433570000000     0.424150000000    -0.130958   
C499     C      0.251690000000     0.399670000000     0.331770000000     0.0715596  
C500     C      0.250690000000     0.362090000000     0.336760000000     0.0720088  
C501     C      0.275380000000     0.411900000000     0.344700000000    -0.09316    
C502     C      0.329740000000     0.433640000000     0.356430000000    -0.0376656  
C503     C      0.352980000000     0.445240000000     0.370970000000    -0.0329211  
C504     C      0.311580000000     0.411360000000     0.369750000000    -0.00607168 
C505     C      0.274300000000     0.373730000000     0.349810000000    -0.0934421  
C506     C      0.358580000000     0.434840000000     0.399190000000    -0.0142245  
C507     C      0.396220000000     0.471980000000     0.419290000000    -0.10378    
C508     C      0.340340000000     0.412640000000     0.412650000000    -0.0329831  
C509     C      0.419630000000     0.483130000000     0.432900000000     0.0744981  
C510     C      0.417890000000     0.445050000000     0.438320000000     0.150504   
C511     C      0.317140000000     0.401040000000     0.398090000000    -0.037777   
C512     C      0.286860000000     0.398890000000     0.354350000000     0.0484198  
C513     C      0.383380000000     0.446970000000     0.414370000000     0.0646795  
C514     C      0.427540000000     0.428710000000     0.449890000000    -0.217216   
C515     C      0.509640000000     0.967370000000     0.814320000000    -0.132065   
C516     C      0.526080000000     0.012850000000     0.591050000000     0.0715069  
C517     C      0.494790000000     0.971780000000     0.590260000000     0.0712909  
C518     C      0.528510000000     0.011840000000     0.626990000000    -0.0929299  
C519     C      0.537320000000     0.003550000000     0.701570000000    -0.0374822  
C520     C      0.538250000000     0.003400000000     0.737890000000    -0.0336168  
C521     C      0.515280000000     0.989180000000     0.683830000000    -0.0061524  
C522     C      0.497140000000     0.969970000000     0.626070000000    -0.0933145  
C523     C      0.517320000000     0.988480000000     0.757190000000    -0.0146568  
C524     C      0.525080000000     0.010270000000     0.813600000000    -0.10449    
C525     C      0.495470000000     0.973730000000     0.739710000000    -0.0333249  
C526     C      0.522920000000     0.009850000000     0.849660000000     0.0757679  
C527     C      0.508000000000     0.967300000000     0.850810000000     0.150868   
C528     C      0.494380000000     0.974250000000     0.703510000000    -0.0373967  
C529     C      0.513820000000     0.990270000000     0.645170000000     0.0478922  
C530     C      0.517850000000     0.988800000000     0.795590000000     0.0655675  
C531     C      0.497870000000     0.942940000000     0.868670000000    -0.217909   
C532     C      0.477640000000     0.008450000000     0.123760000000    -0.131973   
C533     C      0.506950000000     0.022570000000     0.348760000000     0.0715255  
C534     C      0.468830000000     0.986400000000     0.351110000000     0.0710108  
C535     C      0.505820000000     0.022670000000     0.312530000000    -0.0941951  
C536     C      0.505630000000     0.004660000000     0.238930000000    -0.0376338  
C537     C      0.505080000000     0.002170000000     0.202860000000    -0.033074   
C538     C      0.485470000000     0.002650000000     0.256790000000    -0.00672239 
C539     C      0.466950000000     0.986160000000     0.314920000000    -0.0943196  
C540     C      0.484490000000     0.997960000000     0.183860000000    -0.014738   
C541     C      0.490330000000     0.978990000000     0.130890000000    -0.104663   
C542     C      0.464460000000     0.996380000000     0.201590000000    -0.0332957  
C543     C      0.491060000000     0.977220000000     0.094910000000     0.0759701  
C544     C      0.478490000000     0.006440000000     0.087400000000     0.151874   
C545     C      0.464860000000     0.998470000000     0.237820000000    -0.0380513  
C546     C      0.485860000000     0.004100000000     0.295220000000     0.048624   
C547     C      0.484010000000     0.995030000000     0.145660000000     0.0655086  
C548     C      0.470060000000     0.020640000000     0.065600000000    -0.219056   
C549     C      0.727150000000     0.084490000000     0.092400000000    -0.131169   
C550     C      0.584410000000     0.050110000000     0.999840000000     0.0714701  
C551     C      0.582910000000     0.012410000000     0.006760000000     0.0714808  
C552     C      0.608220000000     0.062380000000     0.012200000000    -0.0935015  
C553     C      0.651600000000     0.081320000000     0.060570000000    -0.0376252  
C554     C      0.674880000000     0.092950000000     0.074900000000    -0.0330566  
C555     C      0.644530000000     0.062050000000     0.037060000000    -0.00615945 
C556     C      0.606710000000     0.024110000000     0.019180000000    -0.0935062  
C557     C      0.691660000000     0.085590000000     0.066080000000    -0.0142207  
C558     C      0.729390000000     0.122960000000     0.085410000000    -0.103655   
C559     C      0.684630000000     0.066410000000     0.042440000000    -0.0329299  
C560     C      0.752830000000     0.134230000000     0.098910000000     0.0740499  
C561     C      0.750710000000     0.096120000000     0.106520000000     0.150453   
C562     C      0.661340000000     0.054760000000     0.028110000000    -0.0378453  
C563     C      0.619590000000     0.049380000000     0.022420000000     0.048321   
C564     C      0.716400000000     0.097860000000     0.081440000000     0.06452    
C565     C      0.760070000000     0.079910000000     0.119830000000    -0.21767    
C566     C      0.164330000000     0.850770000000     0.460280000000    -0.132551   
C567     C      0.188490000000     0.862300000000     0.681100000000     0.0709846  
C568     C      0.182410000000     0.822480000000     0.677270000000     0.0718784  
C569     C      0.190930000000     0.864890000000     0.645040000000    -0.0947958  
C570     C      0.206890000000     0.866280000000     0.568330000000    -0.0381547  
C571     C      0.206050000000     0.867600000000     0.532090000000    -0.0334751  
C572     C      0.187950000000     0.846900000000     0.586390000000    -0.00702792 
C573     C      0.184270000000     0.824290000000     0.641140000000    -0.0947346  
C574     C      0.185990000000     0.849880000000     0.513610000000    -0.0152165  
C575     C      0.202490000000     0.852170000000     0.454110000000    -0.105015   
C576     C      0.167070000000     0.830580000000     0.531710000000    -0.0331234  
C577     C      0.199380000000     0.850850000000     0.418170000000     0.074477   
C578     C      0.161800000000     0.850230000000     0.423930000000     0.150884   
C579     C      0.168140000000     0.828990000000     0.567750000000    -0.0377923  
C580     C      0.188240000000     0.845550000000     0.624690000000     0.0490003  
C581     C      0.184480000000     0.851320000000     0.475470000000     0.0657918  
C582     C      0.139630000000     0.850490000000     0.410080000000    -0.217257   
C583     C      0.134200000000     0.807600000000     0.144710000000    -0.132484   
C584     C      0.151770000000     0.800980000000     0.918780000000     0.0719264  
C585     C      0.156140000000     0.840140000000     0.922210000000     0.0718302  
C586     C      0.150020000000     0.798730000000     0.954910000000    -0.0940384  
C587     C      0.170700000000     0.836220000000     0.032390000000    -0.0376281  
C588     C      0.171590000000     0.835100000000     0.068540000000    -0.032811   
C589     C      0.152490000000     0.816760000000     0.013530000000    -0.00648428 
C590     C      0.154810000000     0.838620000000     0.958390000000    -0.0944617  
C591     C      0.154120000000     0.814630000000     0.086580000000    -0.0147622  
C592     C      0.176540000000     0.820120000000     0.142160000000    -0.104835   
C593     C      0.135790000000     0.795210000000     0.067790000000    -0.0329891  
C594     C      0.177440000000     0.821030000000     0.178310000000     0.0760749  
C595     C      0.135420000000     0.808520000000     0.181220000000     0.152589   
C596     C      0.135100000000     0.796180000000     0.031520000000    -0.0379696  
C597     C      0.152080000000     0.817900000000     0.975130000000     0.0489938  
C598     C      0.154900000000     0.813890000000     0.124990000000     0.0659125  
C599     C      0.111850000000     0.800000000000     0.200630000000    -0.219045   
C600     C      0.278240000000     0.900100000000     0.841910000000    -0.131659   
C601     C      0.417130000000     0.930580000000     0.942560000000     0.0702794  
C602     C      0.419180000000     0.968390000000     0.933720000000     0.0707037  
C603     C      0.393390000000     0.918350000000     0.929890000000    -0.0938784  
C604     C      0.350260000000     0.899180000000     0.880720000000    -0.0375072  
C605     C      0.327290000000     0.888120000000     0.865320000000    -0.0332488  
C606     C      0.357530000000     0.918900000000     0.903470000000    -0.00639061 
C607     C      0.395500000000     0.956750000000     0.920930000000    -0.093734   
C608     C      0.311120000000     0.896580000000     0.872250000000    -0.0141533  
C609     C      0.272710000000     0.860450000000     0.851520000000    -0.103607   
C610     C      0.318240000000     0.916010000000     0.895450000000    -0.0332008  
C611     C      0.249650000000     0.850450000000     0.836810000000     0.0751741  
C612     C      0.255170000000     0.889740000000     0.826460000000     0.151791   
C613     C      0.341150000000     0.927020000000     0.910890000000    -0.0376949  
C614     C      0.382360000000     0.931440000000     0.918530000000     0.0480452  
C615     C      0.287030000000     0.885510000000     0.855040000000     0.0650175  
C616     C      0.248100000000     0.907080000000     0.810460000000    -0.2178     
C617     C      0.826140000000     0.698640000000     0.797880000000    -0.131835   
C618     C      0.808270000000     0.656100000000     0.022540000000     0.0716685  
C619     C      0.840430000000     0.696780000000     0.021820000000     0.0721211  
C620     C      0.805650000000     0.656560000000     0.986520000000    -0.0928762  
C621     C      0.797250000000     0.664000000000     0.911170000000    -0.0373364  
C622     C      0.796380000000     0.663720000000     0.874820000000    -0.0335933  
C623     C      0.819370000000     0.678090000000     0.928840000000    -0.00608735 
C624     C      0.837900000000     0.698060000000     0.985980000000    -0.093135   
C625     C      0.817480000000     0.677930000000     0.855430000000    -0.0145095  
C626     C      0.809000000000     0.655500000000     0.799460000000    -0.104291   
C627     C      0.839450000000     0.692330000000     0.872830000000    -0.0333118  
C628     C      0.811290000000     0.655520000000     0.763450000000     0.0751789  
C629     C      0.827910000000     0.698330000000     0.761430000000     0.150026   
C630     C      0.840450000000     0.692220000000     0.909050000000    -0.0372195  
C631     C      0.820770000000     0.677640000000     0.967570000000     0.0481229  
C632     C      0.817010000000     0.677270000000     0.817030000000     0.0652719  
C633     C      0.838990000000     0.722620000000     0.743130000000    -0.217095   
C634     C      0.841180000000     0.647970000000     0.485760000000    -0.130297   
C635     C      0.868340000000     0.687320000000     0.260820000000     0.0716502  
C636     C      0.834850000000     0.647300000000     0.263370000000     0.0712889  
C637     C      0.870710000000     0.687840000000     0.296920000000    -0.0944394  
C638     C      0.854110000000     0.687260000000     0.372320000000    -0.0379197  
C639     C      0.853450000000     0.687670000000     0.408560000000    -0.0327877  
C640     C      0.855650000000     0.668720000000     0.355000000000    -0.00652962 
C641     C      0.837070000000     0.647030000000     0.299480000000    -0.0941662  
C642     C      0.854810000000     0.669790000000     0.428420000000    -0.0139679  
C643     C      0.862000000000     0.691400000000     0.485640000000    -0.103344   
C644     C      0.857000000000     0.651570000000     0.410850000000    -0.0330725  
C645     C      0.858360000000     0.691030000000     0.521360000000     0.0756474  
C646     C      0.837980000000     0.647920000000     0.521990000000     0.150603   
C647     C      0.857120000000     0.650890000000     0.374510000000    -0.0384362  
C648     C      0.854780000000     0.667670000000     0.316620000000     0.0487268  
C649     C      0.852990000000     0.669740000000     0.467130000000     0.0640082  
C650     C      0.823550000000     0.623420000000     0.539410000000    -0.21788    
C651     C      0.727360000000     0.644510000000     0.595630000000    -0.13108    
C652     C      0.584570000000     0.534120000000     0.505770000000     0.0706571  
C653     C      0.582620000000     0.570310000000     0.506890000000     0.0704402  
C654     C      0.608210000000     0.546390000000     0.518700000000    -0.093882   
C655     C      0.662180000000     0.579370000000     0.529420000000    -0.0378101  
C656     C      0.685270000000     0.591010000000     0.544340000000    -0.033119   
C657     C      0.644130000000     0.584230000000     0.541230000000    -0.00632217 
C658     C      0.606260000000     0.583140000000     0.519890000000    -0.0937482  
C659     C      0.690900000000     0.607800000000     0.571400000000    -0.0142429  
C660     C      0.726980000000     0.606690000000     0.594980000000    -0.104318   
C661     C      0.672970000000     0.612880000000     0.582960000000    -0.033091   
C662     C      0.750280000000     0.618300000000     0.608930000000     0.0740288  
C663     C      0.750800000000     0.655920000000     0.610190000000     0.150637   
C664     C      0.649840000000     0.601220000000     0.568050000000    -0.0376606  
C665     C      0.619290000000     0.571160000000     0.526230000000     0.0481551  
C666     C      0.715400000000     0.619840000000     0.587550000000     0.0646028  
C667     C      0.761640000000     0.682360000000     0.619940000000    -0.217712   
C668     C      0.061080000000     0.797590000000     0.756310000000    -0.130707   
C669     C      0.914080000000     0.689240000000     0.677530000000     0.0709055  
C670     C      0.918090000000     0.728120000000     0.671450000000     0.070731   
C671     C      0.937770000000     0.699630000000     0.690310000000    -0.0932892  
C672     C      0.993220000000     0.729420000000     0.698690000000    -0.0396541  
C673     C      0.016780000000     0.741000000000     0.712210000000    -0.030983   
C674     C      0.976410000000     0.736210000000     0.709640000000    -0.00534456 
C675     C      0.941690000000     0.739040000000     0.684420000000    -0.0942721  
C676     C      0.023960000000     0.759480000000     0.737170000000    -0.0150331  
C677     C      0.062040000000     0.760480000000     0.757080000000    -0.103388   
C678     C      0.006860000000     0.765770000000     0.748700000000    -0.0312508  
C679     C      0.085990000000     0.773260000000     0.768600000000     0.0746932  
C680     C      0.085190000000     0.810230000000     0.768340000000     0.15031    
C681     C      0.983420000000     0.754350000000     0.734990000000    -0.0398097  
C682     C      0.951700000000     0.724780000000     0.694420000000     0.0478684  
C683     C      0.049320000000     0.772630000000     0.750470000000     0.0649404  
C684     C      0.095970000000     0.837220000000     0.774090000000    -0.216974   
Cu1      Cu     0.836260000000     0.693390000000     0.637500000000     0.839878   
Cu2      Cu     0.830870000000     0.652730000000     0.646310000000     0.839933   
Cu3      Cu     0.169800000000     0.850840000000     0.801110000000     0.841066   
Cu4      Cu     0.168590000000     0.811660000000     0.798320000000     0.844265   
Cu5      Cu     0.501760000000     0.009950000000     0.966840000000     0.841854   
Cu6      Cu     0.499940000000     0.970740000000     0.975080000000     0.841455   
Cu7      Cu     0.168940000000     0.358870000000     0.298170000000     0.844864   
Cu8      Cu     0.168410000000     0.319970000000     0.302590000000     0.845734   
Cu9      Cu     0.833640000000     0.177940000000     0.137200000000     0.839959   
Cu10     Cu     0.836310000000     0.140810000000     0.133240000000     0.839879   
Cu11     Cu     0.500270000000     0.526820000000     0.471490000000     0.840723   
Cu12     Cu     0.502730000000     0.489510000000     0.469880000000     0.838725   
Cu13     Cu     0.150600000000     0.316930000000     0.802210000000     0.842413   
Cu14     Cu     0.187470000000     0.356910000000     0.798880000000     0.834504   
Cu15     Cu     0.312570000000     0.149550000000     0.628100000000     0.8416     
Cu16     Cu     0.352720000000     0.185240000000     0.638600000000     0.840774   
Cu17     Cu     0.984770000000     0.487030000000     0.967760000000     0.836762   
Cu18     Cu     0.024560000000     0.524220000000     0.972190000000     0.845933   
Cu19     Cu     0.651130000000     0.821280000000     0.298740000000     0.842812   
Cu20     Cu     0.691320000000     0.857390000000     0.307010000000     0.840251   
Cu21     Cu     0.819180000000     0.651610000000     0.143740000000     0.840896   
Cu22     Cu     0.857000000000     0.690950000000     0.140180000000     0.844976   
Cu23     Cu     0.479970000000     0.979060000000     0.471300000000     0.838706   
Cu24     Cu     0.517170000000     0.018930000000     0.469910000000     0.843594   
Cu25     Cu     0.350590000000     0.167930000000     0.134490000000     0.844703   
Cu26     Cu     0.310620000000     0.165230000000     0.132510000000     0.841465   
Cu27     Cu     0.517470000000     0.499970000000     0.967900000000     0.844357   
Cu28     Cu     0.479950000000     0.501970000000     0.973380000000     0.841681   
Cu29     Cu     0.187350000000     0.832230000000     0.299140000000     0.842041   
Cu30     Cu     0.149620000000     0.833950000000     0.301080000000     0.839489   
Cu31     Cu     0.020830000000     0.502080000000     0.471410000000     0.846057   
Cu32     Cu     0.980780000000     0.499140000000     0.468380000000     0.840449   
Cu33     Cu     0.857520000000     0.165690000000     0.633860000000     0.83816    
Cu34     Cu     0.820370000000     0.168530000000     0.636870000000     0.846362   
Cu35     Cu     0.686040000000     0.835000000000     0.803370000000     0.845414   
Cu36     Cu     0.646150000000     0.832430000000     0.801320000000     0.837314   
H1       H      0.766590000000     0.095810000000     0.667080000000     0.0246021  
H2       H      0.733400000000     0.906360000000     0.768210000000     0.0241094  
H3       H      0.729180000000     0.012660000000     0.673280000000     0.0370471  
H4       H      0.769120000000     0.988550000000     0.763020000000     0.03541    
H5       H      0.754530000000     0.946800000000     0.745690000000     0.05368    
H6       H      0.790800000000     0.029250000000     0.738630000000     0.036896   
H7       H      0.689520000000     0.951120000000     0.752350000000     0.0596442  
H8       H      0.744260000000     0.054790000000     0.689320000000     0.0514716  
H9       H      0.809510000000     0.050100000000     0.684680000000     0.0512793  
H10      H      0.707470000000     0.971890000000     0.697730000000     0.0354469  
H11      H      0.831420000000     0.091270000000     0.663080000000     0.0240073  
H12      H      0.657390000000     0.901010000000     0.806650000000     0.0853561  
H13      H      0.654970000000     0.921640000000     0.778030000000     0.0688721  
H14      H      0.648250000000     0.892770000000     0.761390000000     0.0840961  
H15      H      0.002120000000     0.429500000000     0.502130000000     0.0256744  
H16      H      0.844720000000     0.240020000000     0.601420000000     0.0242006  
H17      H      0.962600000000     0.365660000000     0.575620000000     0.0369883  
H18      H      0.885110000000     0.301600000000     0.525500000000     0.0358339  
H19      H      0.864420000000     0.280520000000     0.578750000000     0.0538911  
H20      H      0.904570000000     0.342250000000     0.500710000000     0.037107   
H21      H      0.933410000000     0.284150000000     0.586710000000     0.0593954  
H22      H      0.983370000000     0.388200000000     0.523300000000     0.0512142  
H23      H      0.913240000000     0.382900000000     0.515950000000     0.0513901  
H24      H      0.943130000000     0.325030000000     0.600450000000     0.0345194  
H25      H      0.932460000000     0.424060000000     0.494320000000     0.0244781  
H26      H      0.917150000000     0.227000000000     0.598300000000     0.0837136  
H27      H      0.938070000000     0.255660000000     0.617060000000     0.0673818  
H28      H      0.913940000000     0.234100000000     0.643300000000     0.0807092  
H29      H      0.097100000000     0.761260000000     0.333140000000     0.0223497  
H30      H      0.067840000000     0.573830000000     0.437040000000     0.0245507  
H31      H      0.060950000000     0.678360000000     0.341570000000     0.0365929  
H32      H      0.103000000000     0.656210000000     0.430530000000     0.0356557  
H33      H      0.088450000000     0.614190000000     0.414060000000     0.054171   
H34      H      0.123840000000     0.696600000000     0.404970000000     0.0371393  
H35      H      0.023320000000     0.618110000000     0.423070000000     0.0600516  
H36      H      0.075650000000     0.720480000000     0.356360000000     0.0507223  
H37      H      0.141550000000     0.717040000000     0.350540000000     0.0514746  
H38      H      0.040070000000     0.637960000000     0.367250000000     0.0354619  
H39      H      0.162600000000     0.757990000000     0.328030000000     0.0244196  
H40      H      0.992440000000     0.567850000000     0.478430000000     0.0857799  
H41      H      0.989710000000     0.589040000000     0.451470000000     0.068979   
H42      H      0.982370000000     0.560340000000     0.433360000000     0.0845461  
H43      H      0.597910000000     0.759100000000     0.833350000000     0.0230346  
H44      H      0.568670000000     0.571370000000     0.935160000000     0.0245296  
H45      H      0.566060000000     0.677680000000     0.839670000000     0.0359723  
H46      H      0.607830000000     0.655580000000     0.929150000000     0.036      
H47      H      0.591050000000     0.611590000000     0.911310000000     0.054296   
H48      H      0.628590000000     0.696280000000     0.904230000000     0.0371521  
H49      H      0.529460000000     0.621010000000     0.925240000000     0.0599177  
H50      H      0.578320000000     0.718130000000     0.855080000000     0.0504949  
H51      H      0.647060000000     0.720040000000     0.853340000000     0.0512571  
H52      H      0.545210000000     0.637360000000     0.865330000000     0.0353943  
H53      H      0.666350000000     0.761520000000     0.832630000000     0.0244434  
H54      H      0.497900000000     0.572250000000     0.982810000000     0.0853423  
H55      H      0.496180000000     0.594240000000     0.956440000000     0.0686115  
H56      H      0.485890000000     0.564800000000     0.938560000000     0.084255   
H57      H      0.331280000000     0.095210000000     0.167040000000     0.0245283  
H58      H      0.173080000000     0.905330000000     0.264600000000     0.023031   
H59      H      0.285400000000     0.012090000000     0.173630000000     0.036705   
H60      H      0.219210000000     0.987970000000     0.259620000000     0.0352807  
H61      H      0.192510000000     0.945850000000     0.241920000000     0.0534811  
H62      H      0.238920000000     0.028740000000     0.235350000000     0.0370553  
H63      H      0.262040000000     0.951240000000     0.253920000000     0.0596277  
H64      H      0.312130000000     0.054160000000     0.189450000000     0.0511451  
H65      H      0.242410000000     0.049740000000     0.181470000000     0.0513564  
H66      H      0.265730000000     0.971310000000     0.198090000000     0.0351484  
H67      H      0.262080000000     0.090860000000     0.159890000000     0.0245231  
H68      H      0.246380000000     0.893820000000     0.264510000000     0.084055   
H69      H      0.266880000000     0.922630000000     0.283140000000     0.0684897  
H70      H      0.242740000000     0.901030000000     0.309290000000     0.0848419  
H71      H      0.427810000000     0.429080000000     0.004090000000     0.0243557  
H72      H      0.397630000000     0.239370000000     0.098820000000     0.0243578  
H73      H      0.405500000000     0.365330000000     0.076670000000     0.0370979  
H74      H      0.418960000000     0.301930000000     0.024180000000     0.0359301  
H75      H      0.418500000000     0.280040000000     0.076830000000     0.0539234  
H76      H      0.439870000000     0.342830000000     0.000140000000     0.037123   
H77      H      0.353320000000     0.283900000000     0.085480000000     0.0597698  
H78      H      0.406210000000     0.387740000000     0.025000000000     0.0512573  
H79      H      0.471610000000     0.383730000000     0.014970000000     0.0515546  
H80      H      0.384630000000     0.324480000000     0.100680000000     0.0351117  
H81      H      0.492640000000     0.425010000000     0.993530000000     0.0245897  
H82      H      0.322430000000     0.233790000000     0.140980000000     0.0856663  
H83      H      0.319710000000     0.254920000000     0.113890000000     0.0690578  
H84      H      0.312370000000     0.226190000000     0.095900000000     0.0849806  
H85      H      0.631550000000     0.795040000000     0.404000000000     0.0234316  
H86      H      0.699000000000     0.831850000000     0.695760000000     0.0230805  
H87      H      0.632310000000     0.818780000000     0.518480000000     0.0377986  
H88      H      0.691410000000     0.805230000000     0.584700000000     0.034646   
H89      H      0.699450000000     0.828860000000     0.633760000000     0.0532617  
H90      H      0.693840000000     0.807750000000     0.521420000000     0.0372128  
H91      H      0.621670000000     0.794770000000     0.631720000000     0.0590995  
H92      H      0.628350000000     0.788530000000     0.466510000000     0.051584   
H93      H      0.702940000000     0.844570000000     0.477820000000     0.0523167  
H94      H      0.630580000000     0.817800000000     0.581700000000     0.0346782  
H95      H      0.705510000000     0.851160000000     0.415410000000     0.0242419  
H96      H      0.610190000000     0.808730000000     0.707460000000     0.0832037  
H97      H      0.599320000000     0.781460000000     0.682550000000     0.0690453  
H98      H      0.613820000000     0.783680000000     0.723040000000     0.0848184  
H99      H      0.709130000000     0.859880000000     0.908580000000     0.0241271  
H100     H      0.635650000000     0.831600000000     0.193620000000     0.023063   
H101     H      0.699960000000     0.845180000000     0.021940000000     0.0366839  
H102     H      0.649290000000     0.872280000000     0.083610000000     0.0358874  
H103     H      0.635830000000     0.835550000000     0.131190000000     0.0546766  
H104     H      0.649680000000     0.872300000000     0.020120000000     0.0359226  
H105     H      0.712920000000     0.882140000000     0.132570000000     0.0602558  
H106     H      0.711680000000     0.866300000000     0.970600000000     0.0507093  
H107     H      0.636490000000     0.847860000000     0.971540000000     0.0504986  
H108     H      0.700540000000     0.846760000000     0.085050000000     0.036289   
H109     H      0.635150000000     0.843190000000     0.909170000000     0.0233676  
H110     H      0.723430000000     0.868690000000     0.215510000000     0.0845297  
H111     H      0.735570000000     0.891040000000     0.182130000000     0.068671   
H112     H      0.721260000000     0.896190000000     0.218330000000     0.0850552  
H113     H      0.767150000000     0.672860000000     0.174460000000     0.0246373  
H114     H      0.738550000000     0.832240000000     0.274730000000     0.0218185  
H115     H      0.731970000000     0.720750000000     0.179490000000     0.0370995  
H116     H      0.772950000000     0.784290000000     0.269340000000     0.0352333  
H117     H      0.759280000000     0.812230000000     0.252960000000     0.0529199  
H118     H      0.793830000000     0.764360000000     0.245050000000     0.0369622  
H119     H      0.693210000000     0.743830000000     0.257790000000     0.0599102  
H120     H      0.745860000000     0.692700000000     0.196520000000     0.0516054  
H121     H      0.812190000000     0.761480000000     0.190790000000     0.0513039  
H122     H      0.711100000000     0.740750000000     0.203680000000     0.0354284  
H123     H      0.833060000000     0.741090000000     0.169270000000     0.0244294  
H124     H      0.652680000000     0.761110000000     0.265490000000     0.0846673  
H125     H      0.659280000000     0.739600000000     0.285220000000     0.0694401  
H126     H      0.661430000000     0.763660000000     0.311190000000     0.0858115  
H127     H      0.602840000000     0.847720000000     0.323830000000     0.0242614  
H128     H      0.570490000000     0.001120000000     0.438370000000     0.0244196  
H129     H      0.572620000000     0.898760000000     0.331530000000     0.0364163  
H130     H      0.610150000000     0.956170000000     0.429610000000     0.035994   
H131     H      0.594110000000     0.984920000000     0.413440000000     0.0542537  
H132     H      0.631730000000     0.937310000000     0.403860000000     0.0371301  
H133     H      0.532530000000     0.913300000000     0.418240000000     0.0600333  
H134     H      0.583000000000     0.869010000000     0.344930000000     0.0508949  
H135     H      0.652630000000     0.934140000000     0.354400000000     0.0512239  
H136     H      0.550880000000     0.917050000000     0.358110000000     0.0357873  
H137     H      0.672090000000     0.911930000000     0.334270000000     0.0240931  
H138     H      0.488120000000     0.924710000000     0.431700000000     0.0841942  
H139     H      0.498050000000     0.904810000000     0.447930000000     0.0685046  
H140     H      0.498460000000     0.926830000000     0.476600000000     0.0850654  
H141     H      0.967720000000     0.507870000000     0.576070000000     0.0236384  
H142     H      0.040200000000     0.542200000000     0.865360000000     0.0236828  
H143     H      0.980900000000     0.537420000000     0.686470000000     0.0361253  
H144     H      0.030260000000     0.511560000000     0.754620000000     0.036862   
H145     H      0.042070000000     0.546120000000     0.802900000000     0.0550182  
H146     H      0.030850000000     0.510000000000     0.691500000000     0.0369421  
H147     H      0.964640000000     0.502260000000     0.797010000000     0.060886   
H148     H      0.968140000000     0.512310000000     0.638390000000     0.0507536  
H149     H      0.043450000000     0.531240000000     0.639960000000     0.0511945  
H150     H      0.979400000000     0.537520000000     0.749870000000     0.0355866  
H151     H      0.041890000000     0.525150000000     0.577850000000     0.0243812  
H152     H      0.954440000000     0.505650000000     0.888240000000     0.0850967  
H153     H      0.940950000000     0.494100000000     0.846990000000     0.0696183  
H154     H      0.950800000000     0.477020000000     0.872540000000     0.0840915  
H155     H      0.030050000000     0.484270000000     0.365890000000     0.0248032  
H156     H      0.034960000000     0.529260000000     0.081510000000     0.023857   
H157     H      0.005680000000     0.453300000000     0.251760000000     0.0380239  
H158     H      0.999010000000     0.517410000000     0.187710000000     0.0350668  
H159     H      0.033770000000     0.525920000000     0.143930000000     0.0552543  
H160     H      0.995360000000     0.515330000000     0.251010000000     0.0386323  
H161     H      0.980530000000     0.450490000000     0.136440000000     0.0607379  
H162     H      0.031110000000     0.481580000000     0.302980000000     0.0519293  
H163     H      0.965360000000     0.485110000000     0.296190000000     0.0514097  
H164     H      0.009120000000     0.455260000000     0.188140000000     0.0353322  
H165     H      0.964540000000     0.487450000000     0.359050000000     0.0239151  
H166     H      0.989470000000     0.445550000000     0.045350000000     0.0851739  
H167     H      0.973150000000     0.430260000000     0.083430000000     0.0696534  
H168     H      0.961860000000     0.445800000000     0.057260000000     0.0841188  
H169     H      0.936060000000     0.511690000000     0.000760000000     0.0230375  
H170     H      0.907600000000     0.670390000000     0.104720000000     0.0242691  
H171     H      0.903960000000     0.561210000000     0.008500000000     0.0362331  
H172     H      0.946270000000     0.624860000000     0.097800000000     0.0355952  
H173     H      0.929670000000     0.652340000000     0.080290000000     0.0540449  
H174     H      0.966780000000     0.604750000000     0.072640000000     0.0367025  
H175     H      0.867880000000     0.581630000000     0.094420000000     0.059933   
H176     H      0.916350000000     0.532940000000     0.022900000000     0.0504678  
H177     H      0.985050000000     0.599640000000     0.021700000000     0.0509786  
H178     H      0.883360000000     0.580890000000     0.034430000000     0.0357365  
H179     H      0.004400000000     0.577620000000     0.000660000000     0.0254638  
H180     H      0.824620000000     0.594620000000     0.108700000000     0.0844072  
H181     H      0.834900000000     0.575320000000     0.126210000000     0.0686812  
H182     H      0.836900000000     0.599030000000     0.152770000000     0.0854062  
H183     H      0.288180000000     0.141630000000     0.026450000000     0.0237541  
H184     H      0.365820000000     0.172550000000     0.743810000000     0.0234146  
H185     H      0.298350000000     0.156840000000     0.913000000000     0.0365335  
H186     H      0.349580000000     0.129960000000     0.852420000000     0.0360182  
H187     H      0.364250000000     0.167510000000     0.806110000000     0.0548878  
H188     H      0.348190000000     0.129210000000     0.915860000000     0.0362857  
H189     H      0.287170000000     0.121370000000     0.801140000000     0.0602653  
H190     H      0.286080000000     0.135620000000     0.964290000000     0.0505709  
H191     H      0.361090000000     0.153420000000     0.964540000000     0.0509016  
H192     H      0.298740000000     0.155980000000     0.849850000000     0.0362919  
H193     H      0.361960000000     0.157670000000     0.026880000000     0.0244093  
H194     H      0.280770000000     0.108830000000     0.714720000000     0.0851142  
H195     H      0.265660000000     0.113210000000     0.750590000000     0.0687543  
H196     H      0.278510000000     0.136250000000     0.718220000000     0.084973   
H197     H      0.373680000000     0.192590000000     0.239650000000     0.0243165  
H198     H      0.299000000000     0.162430000000     0.523560000000     0.0233902  
H199     H      0.365010000000     0.178120000000     0.353120000000     0.0367471  
H200     H      0.313810000000     0.204450000000     0.415050000000     0.035946   
H201     H      0.300040000000     0.167560000000     0.461360000000     0.054814   
H202     H      0.314300000000     0.204710000000     0.351570000000     0.0361343  
H203     H      0.377180000000     0.213610000000     0.465070000000     0.0603158  
H204     H      0.376410000000     0.199120000000     0.301650000000     0.0507925  
H205     H      0.301060000000     0.180110000000     0.303130000000     0.0507184  
H206     H      0.365470000000     0.179430000000     0.416240000000     0.036381   
H207     H      0.299520000000     0.175330000000     0.240760000000     0.0236444  
H208     H      0.386480000000     0.198550000000     0.547580000000     0.0853206  
H209     H      0.399110000000     0.221660000000     0.515280000000     0.0691125  
H210     H      0.384280000000     0.225970000000     0.551580000000     0.0853394  
H211     H      0.331500000000     0.095600000000     0.597720000000     0.0239756  
H212     H      0.492060000000     0.065360000000     0.506670000000     0.0240993  
H213     H      0.373810000000     0.073310000000     0.526770000000     0.0367611  
H214     H      0.448890000000     0.083810000000     0.582120000000     0.0358989  
H215     H      0.471700000000     0.085590000000     0.529350000000     0.0538795  
H216     H      0.428490000000     0.104070000000     0.607020000000     0.036833   
H217     H      0.402980000000     0.020860000000     0.515640000000     0.0597366  
H218     H      0.350780000000     0.073440000000     0.576860000000     0.0510432  
H219     H      0.420820000000     0.136700000000     0.593970000000     0.0507635  
H220     H      0.394140000000     0.052950000000     0.502040000000     0.0348654  
H221     H      0.401060000000     0.158160000000     0.615340000000     0.0230004  
H222     H      0.419330000000     0.980180000000     0.503430000000     0.0842932  
H223     H      0.399250000000     0.988730000000     0.483620000000     0.0685892  
H224     H      0.424250000000     0.991830000000     0.458990000000     0.0848096  
H225     H      0.004380000000     0.434360000000     0.934370000000     0.02315    
H226     H      0.162910000000     0.403710000000     0.835370000000     0.0225768  
H227     H      0.044720000000     0.411180000000     0.860640000000     0.0367386  
H228     H      0.122180000000     0.424650000000     0.911300000000     0.0355544  
H229     H      0.143080000000     0.424390000000     0.858010000000     0.0531771  
H230     H      0.102420000000     0.445570000000     0.936060000000     0.0368692  
H231     H      0.074240000000     0.359060000000     0.850300000000     0.0592807  
H232     H      0.023600000000     0.412410000000     0.912600000000     0.0508109  
H233     H      0.093350000000     0.477350000000     0.921600000000     0.0512696  
H234     H      0.064480000000     0.390250000000     0.835920000000     0.0345388  
H235     H      0.073640000000     0.498690000000     0.943890000000     0.0245381  
H236     H      0.091250000000     0.318350000000     0.839150000000     0.0842476  
H237     H      0.069620000000     0.325560000000     0.821520000000     0.0681816  
H238     H      0.093340000000     0.328350000000     0.794100000000     0.0845736  
H239     H      0.333930000000     0.239280000000     0.668740000000     0.0241313  
H240     H      0.175050000000     0.270600000000     0.763610000000     0.0234942  
H241     H      0.289000000000     0.278270000000     0.673690000000     0.0367795  
H242     H      0.220800000000     0.234280000000     0.756070000000     0.035122   
H243     H      0.194910000000     0.250190000000     0.740220000000     0.0534346  
H244     H      0.240380000000     0.213460000000     0.730570000000     0.0364661  
H245     H      0.264080000000     0.314440000000     0.753850000000     0.0593396  
H246     H      0.314770000000     0.261210000000     0.691050000000     0.0513237  
H247     H      0.244650000000     0.198120000000     0.673970000000     0.0509085  
H248     H      0.269240000000     0.299100000000     0.698950000000     0.0352164  
H249     H      0.264280000000     0.176590000000     0.652170000000     0.0227944  
H250     H      0.243450000000     0.344190000000     0.809880000000     0.0806292  
H251     H      0.268190000000     0.347130000000     0.784720000000     0.0677001  
H252     H      0.247950000000     0.355630000000     0.765360000000     0.0829093  
H253     H      0.450330000000     0.483430000000     0.869180000000     0.0234264  
H254     H      0.478290000000     0.460660000000     0.571410000000     0.02228    
H255     H      0.458350000000     0.502690000000     0.756260000000     0.0360369  
H256     H      0.494760000000     0.464360000000     0.684810000000     0.0353429  
H257     H      0.472080000000     0.453210000000     0.632700000000     0.0529376  
H258     H      0.494450000000     0.460680000000     0.747640000000     0.0365528  
H259     H      0.484070000000     0.525090000000     0.648180000000     0.0593659  
H260     H      0.444300000000     0.479120000000     0.806890000000     0.0503193  
H261     H      0.514480000000     0.484830000000     0.795800000000     0.051494   
H262     H      0.456960000000     0.504730000000     0.693380000000     0.0341443  
H263     H      0.519370000000     0.487950000000     0.858080000000     0.0246977  
H264     H      0.476800000000     0.538060000000     0.564350000000     0.0850098  
H265     H      0.491550000000     0.551580000000     0.604190000000     0.0685187  
H266     H      0.509240000000     0.549350000000     0.570080000000     0.0852238  
H267     H      0.541970000000     0.508950000000     0.074170000000     0.0246193  
H268     H      0.502160000000     0.541470000000     0.363260000000     0.0228385  
H269     H      0.516530000000     0.486540000000     0.188030000000     0.0380262  
H270     H      0.527540000000     0.559150000000     0.251320000000     0.0347538  
H271     H      0.504640000000     0.544030000000     0.301110000000     0.0532386  
H272     H      0.525110000000     0.558090000000     0.187980000000     0.0372891  
H273     H      0.540680000000     0.502130000000     0.300650000000     0.0594019  
H274     H      0.547400000000     0.513170000000     0.136770000000     0.0521372  
H275     H      0.489130000000     0.528940000000     0.143470000000     0.0520457  
H276     H      0.517380000000     0.486700000000     0.251260000000     0.0349084  
H277     H      0.483640000000     0.524030000000     0.080870000000     0.0231087  
H278     H      0.527860000000     0.477730000000     0.376910000000     0.0833187  
H279     H      0.555030000000     0.494640000000     0.351900000000     0.0694854  
H280     H      0.552280000000     0.506890000000     0.392040000000     0.0850181  
H281     H      0.852330000000     0.206440000000     0.032530000000     0.0240897  
H282     H      0.813290000000     0.172720000000     0.745870000000     0.0237686  
H283     H      0.885570000000     0.215220000000     0.919710000000     0.0367164  
H284     H      0.822620000000     0.146310000000     0.851620000000     0.0366213  
H285     H      0.815320000000     0.173680000000     0.808400000000     0.0548355  
H286     H      0.823210000000     0.143270000000     0.914880000000     0.0378004  
H287     H      0.890860000000     0.195510000000     0.803890000000     0.0599243  
H288     H      0.856230000000     0.211480000000     0.969840000000     0.0518675  
H289     H      0.852230000000     0.142150000000     0.961050000000     0.0514683  
H290     H      0.885100000000     0.218190000000     0.856110000000     0.0348009  
H291     H      0.848670000000     0.137700000000     0.023730000000     0.0230134  
H292     H      0.897630000000     0.210970000000     0.713050000000     0.0809949  
H293     H      0.912220000000     0.209540000000     0.751720000000     0.0676577  
H294     H      0.897270000000     0.183050000000     0.724860000000     0.0826369  
H295     H      0.797980000000     0.158860000000     0.529380000000     0.0244631  
H296     H      0.835560000000     0.123990000000     0.240330000000     0.0212641  
H297     H      0.781420000000     0.128870000000     0.419180000000     0.0363748  
H298     H      0.856580000000     0.154930000000     0.351070000000     0.0364331  
H299     H      0.833800000000     0.120260000000     0.302820000000     0.0539898  
H300     H      0.858810000000     0.156540000000     0.414190000000     0.0366698  
H301     H      0.800170000000     0.164090000000     0.308700000000     0.0607958  
H302     H      0.793780000000     0.154150000000     0.467100000000     0.0508385  
H303     H      0.850280000000     0.135340000000     0.465810000000     0.0507853  
H304     H      0.779740000000     0.128720000000     0.355790000000     0.0354032  
H305     H      0.854960000000     0.141690000000     0.527870000000     0.0237779  
H306     H      0.786030000000     0.160350000000     0.217710000000     0.0844909  
H307     H      0.784550000000     0.172280000000     0.258860000000     0.0695852  
H308     H      0.811220000000     0.189070000000     0.232810000000     0.084384   
H309     H      0.159000000000     0.372510000000     0.404640000000     0.0248221  
H310     H      0.134620000000     0.302330000000     0.694430000000     0.0222572  
H311     H      0.184530000000     0.370400000000     0.516690000000     0.0381009  
H312     H      0.114230000000     0.307980000000     0.583060000000     0.0344975  
H313     H      0.130830000000     0.301410000000     0.632370000000     0.0530666  
H314     H      0.113920000000     0.306220000000     0.519660000000     0.0375486  
H315     H      0.170890000000     0.379300000000     0.629740000000     0.0592798  
H316     H      0.155710000000     0.373430000000     0.467400000000     0.0522936  
H317     H      0.143050000000     0.300490000000     0.473070000000     0.0524675  
H318     H      0.185790000000     0.371530000000     0.579870000000     0.0347905  
H319     H      0.147040000000     0.300210000000     0.410210000000     0.0245286  
H320     H      0.196780000000     0.392320000000     0.705060000000     0.0831911  
H321     H      0.178850000000     0.401620000000     0.680460000000     0.0691615  
H322     H      0.167580000000     0.386980000000     0.721150000000     0.0841974  
H323     H      0.187400000000     0.310900000000     0.197580000000     0.024442   
H324     H      0.144450000000     0.305230000000     0.911210000000     0.0226961  
H325     H      0.218730000000     0.335320000000     0.083630000000     0.0369652  
H326     H      0.153930000000     0.339620000000     0.017640000000     0.0364266  
H327     H      0.147020000000     0.305870000000     0.973680000000     0.0543387  
H328     H      0.155110000000     0.343060000000     0.080920000000     0.0379996  
H329     H      0.222250000000     0.360200000000     0.968300000000     0.0601193  
H330     H      0.190710000000     0.309670000000     0.134760000000     0.0518363  
H331     H      0.184080000000     0.373570000000     0.126210000000     0.0521961  
H332     H      0.217630000000     0.332030000000     0.020000000000     0.0350194  
H333     H      0.181100000000     0.374560000000     0.188910000000     0.0248865  
H334     H      0.227670000000     0.379470000000     0.889430000000     0.0825174  
H335     H      0.243220000000     0.368250000000     0.915750000000     0.0680749  
H336     H      0.228520000000     0.352250000000     0.877180000000     0.0809166  
H337     H      0.095470000000     0.268620000000     0.272110000000     0.0247498  
H338     H      0.905180000000     0.230710000000     0.167270000000     0.0240469  
H339     H      0.035190000000     0.246550000000     0.192450000000     0.0370195  
H340     H      0.970030000000     0.259670000000     0.239140000000     0.0358494  
H341     H      0.945980000000     0.254720000000     0.188070000000     0.0533636  
H342     H      0.010830000000     0.282300000000     0.263610000000     0.0372416  
H343     H      0.955580000000     0.192760000000     0.182810000000     0.0591073  
H344     H      0.054610000000     0.247180000000     0.249250000000     0.0517643  
H345     H      0.053300000000     0.314180000000     0.246790000000     0.0520465  
H346     H      0.994690000000     0.224360000000     0.167420000000     0.0349157  
H347     H      0.094340000000     0.335250000000     0.269800000000     0.0248149  
H348     H      0.906680000000     0.157350000000     0.129360000000     0.0850435  
H349     H      0.927540000000     0.156820000000     0.159580000000     0.0679641  
H350     H      0.897930000000     0.148610000000     0.174660000000     0.0839502  
H351     H      0.241620000000     0.342560000000     0.334040000000     0.0247636  
H352     H      0.428760000000     0.502680000000     0.435480000000     0.0233858  
H353     H      0.303440000000     0.384120000000     0.409400000000     0.0371675  
H354     H      0.366700000000     0.462160000000     0.359690000000     0.0356241  
H355     H      0.388230000000     0.483020000000     0.412720000000     0.053485   
H356     H      0.326110000000     0.441930000000     0.334360000000     0.0370429  
H357     H      0.384620000000     0.414100000000     0.420490000000     0.0597385  
H358     H      0.282660000000     0.363010000000     0.356320000000     0.051489   
H359     H      0.284370000000     0.431370000000     0.347960000000     0.0514257  
H360     H      0.343910000000     0.404350000000     0.434760000000     0.0348725  
H361     H      0.243350000000     0.410410000000     0.325190000000     0.024674   
H362     H      0.434310000000     0.432990000000     0.477030000000     0.0846629  
H363     H      0.413250000000     0.409280000000     0.449780000000     0.0685607  
H364     H      0.442090000000     0.430660000000     0.432020000000     0.084158   
H365     H      0.481420000000     0.955700000000     0.576700000000     0.0224162  
H366     H      0.528400000000     0.027040000000     0.862300000000     0.023508   
H367     H      0.476950000000     0.963350000000     0.691130000000     0.0363899  
H368     H      0.555330000000     0.014840000000     0.750930000000     0.0360801  
H369     H      0.531550000000     0.027220000000     0.799780000000     0.0550432  
H370     H      0.553920000000     0.014920000000     0.687500000000     0.0363413  
H371     H      0.504140000000     0.950650000000     0.800320000000     0.0602459  
H372     H      0.485830000000     0.952670000000     0.638560000000     0.0501524  
H373     H      0.541410000000     0.028180000000     0.640410000000     0.0509831  
H374     H      0.479030000000     0.962290000000     0.754160000000     0.0363448  
H375     H      0.537590000000     0.030020000000     0.578250000000     0.0244016  
H376     H      0.481120000000     0.938660000000     0.883180000000     0.0850839  
H377     H      0.492820000000     0.927920000000     0.849900000000     0.0687453  
H378     H      0.511690000000     0.942960000000     0.886320000000     0.0852128  
H379     H      0.454100000000     0.971780000000     0.365370000000     0.0222276  
H380     H      0.496760000000     0.964920000000     0.084980000000     0.0235502  
H381     H      0.449110000000     0.996900000000     0.251020000000     0.0365839  
H382     H      0.520810000000     0.003630000000     0.189740000000     0.0365472  
H383     H      0.494950000000     0.967980000000     0.147130000000     0.0547055  
H384     H      0.521660000000     0.007650000000     0.252960000000     0.0378801  
H385     H      0.472330000000     0.020710000000     0.135020000000     0.06043    
H386     H      0.451230000000     0.971480000000     0.302400000000     0.0511631  
H387     H      0.520660000000     0.037020000000     0.298120000000     0.0520212  
H388     H      0.448340000000     0.993060000000     0.187490000000     0.0351327  
H389     H      0.522950000000     0.037060000000     0.361060000000     0.0245619  
H390     H      0.457700000000     0.009050000000     0.044670000000     0.0853991  
H391     H      0.459650000000     0.027000000000     0.081240000000     0.0696765  
H392     H      0.485930000000     0.036860000000     0.054380000000     0.0846474  
H393     H      0.573520000000     0.992800000000     0.005220000000     0.0238973  
H394     H      0.762200000000     0.153840000000     0.100370000000     0.0232932  
H395     H      0.656590000000     0.040220000000     0.009710000000     0.0368094  
H396     H      0.679600000000     0.107440000000     0.093400000000     0.0350874  
H397     H      0.721770000000     0.134040000000     0.077210000000     0.0535075  
H398     H      0.638960000000     0.087120000000     0.068460000000     0.0369773  
H399     H      0.716970000000     0.064900000000     0.090590000000     0.0597521  
H400     H      0.614720000000     0.013310000000     0.027030000000     0.0510979  
H401     H      0.617650000000     0.081970000000     0.013690000000     0.051342   
H402     H      0.697250000000     0.060560000000     0.034650000000     0.0353613  
H403     H      0.576270000000     0.060910000000     0.992550000000     0.0242034  
H404     H      0.767450000000     0.085360000000     0.146520000000     0.0848489  
H405     H      0.745450000000     0.060660000000     0.121590000000     0.0689705  
H406     H      0.774100000000     0.080660000000     0.101950000000     0.0840998  
H407     H      0.178950000000     0.805550000000     0.688940000000     0.0245102  
H408     H      0.213640000000     0.850760000000     0.402900000000     0.0226914  
H409     H      0.153240000000     0.813990000000     0.581170000000     0.0379467  
H410     H      0.220810000000     0.882650000000     0.518560000000     0.0353023  
H411     H      0.218480000000     0.852840000000     0.465160000000     0.0541758  
H412     H      0.222340000000     0.880280000000     0.582250000000     0.0368543  
H413     H      0.150550000000     0.850710000000     0.476910000000     0.0606495  
H414     H      0.182290000000     0.809040000000     0.626100000000     0.0523998  
H415     H      0.193970000000     0.881590000000     0.633090000000     0.0513138  
H416     H      0.151510000000     0.816640000000     0.517910000000     0.0366623  
H417     H      0.190060000000     0.877480000000     0.695920000000     0.0219639  
H418     H      0.126760000000     0.832630000000     0.398520000000     0.0843586  
H419     H      0.129670000000     0.854020000000     0.430850000000     0.0686705  
H420     H      0.145060000000     0.865260000000     0.390760000000     0.0852645  
H421     H      0.158640000000     0.856680000000     0.910330000000     0.0231898  
H422     H      0.194940000000     0.826780000000     0.190220000000     0.0226857  
H423     H      0.120840000000     0.780980000000     0.017550000000     0.0372674  
H424     H      0.185780000000     0.850400000000     0.082460000000     0.0362501  
H425     H      0.192850000000     0.824650000000     0.127670000000     0.0545159  
H426     H      0.184470000000     0.852190000000     0.019120000000     0.0377074  
H427     H      0.117170000000     0.802330000000     0.131650000000     0.0606575  
H428     H      0.156130000000     0.853690000000     0.973210000000     0.0516382  
H429     H      0.147930000000     0.782430000000     0.966980000000     0.0522729  
H430     H      0.122160000000     0.779190000000     0.081120000000     0.0353573  
H431     H      0.150690000000     0.785950000000     0.904120000000     0.0246551  
H432     H      0.110570000000     0.815820000000     0.209890000000     0.084093   
H433     H      0.095860000000     0.788940000000     0.183800000000     0.0696949  
H434     H      0.110510000000     0.788230000000     0.222810000000     0.0852944  
H435     H      0.428760000000     0.988020000000     0.934590000000     0.0234897  
H436     H      0.239000000000     0.830840000000     0.836010000000     0.024054   
H437     H      0.346000000000     0.941870000000     0.928770000000     0.0364425  
H438     H      0.322430000000     0.873350000000     0.847290000000     0.0353667  
H439     H      0.278900000000     0.848490000000     0.861180000000     0.054006   
H440     H      0.362550000000     0.892680000000     0.874070000000     0.0363944  
H441     H      0.289570000000     0.919650000000     0.843130000000     0.060027   
H442     H      0.387800000000     0.967630000000     0.912130000000     0.0509862  
H443     H      0.383760000000     0.898740000000     0.929020000000     0.0507457  
H444     H      0.306020000000     0.922640000000     0.901830000000     0.0355466  
H445     H      0.425030000000     0.919740000000     0.950740000000     0.0228843  
H446     H      0.235100000000     0.908910000000     0.827640000000     0.083737   
H447     H      0.264040000000     0.925470000000     0.806800000000     0.0691672  
H448     H      0.240170000000     0.900730000000     0.784230000000     0.085137   
H449     H      0.854220000000     0.712920000000     0.034780000000     0.0242553  
H450     H      0.805150000000     0.638080000000     0.751190000000     0.0234124  
H451     H      0.857960000000     0.702830000000     0.921370000000     0.036623   
H452     H      0.779210000000     0.652550000000     0.861840000000     0.0360094  
H453     H      0.801820000000     0.638580000000     0.813600000000     0.0547982  
H454     H      0.780540000000     0.653210000000     0.925320000000     0.0363832  
H455     H      0.832250000000     0.715600000000     0.811530000000     0.0602161  
H456     H      0.849510000000     0.715040000000     0.972890000000     0.0508434  
H457     H      0.792310000000     0.640170000000     0.973670000000     0.0507977  
H458     H      0.856020000000     0.703170000000     0.858330000000     0.0364017  
H459     H      0.796490000000     0.639280000000     0.035990000000     0.0235889  
H460     H      0.825580000000     0.723060000000     0.725110000000     0.0834709  
H461     H      0.844470000000     0.737890000000     0.761590000000     0.0682695  
H462     H      0.855630000000     0.726130000000     0.728960000000     0.084409   
H463     H      0.820480000000     0.631200000000     0.251120000000     0.0230597  
H464     H      0.865690000000     0.708440000000     0.534230000000     0.0224127  
H465     H      0.858480000000     0.636500000000     0.361620000000     0.036786   
H466     H      0.851190000000     0.701680000000     0.420850000000     0.0352165  
H467     H      0.871860000000     0.708760000000     0.472690000000     0.053066   
H468     H      0.852650000000     0.701040000000     0.357750000000     0.0380986  
H469     H      0.833540000000     0.630910000000     0.471980000000     0.0590306  
H470     H      0.824420000000     0.631120000000     0.314010000000     0.0517441  
H471     H      0.884740000000     0.704050000000     0.309400000000     0.0518879  
H472     H      0.858600000000     0.637770000000     0.425070000000     0.0340813  
H473     H      0.880830000000     0.703490000000     0.246590000000     0.0243255  
H474     H      0.807950000000     0.622390000000     0.553820000000     0.0845747  
H475     H      0.815870000000     0.608300000000     0.520350000000     0.0686159  
H476     H      0.835430000000     0.620220000000     0.557160000000     0.0847168  
H477     H      0.573140000000     0.580270000000     0.502620000000     0.0231078  
H478     H      0.758470000000     0.607130000000     0.613280000000     0.021743   
H479     H      0.636260000000     0.605110000000     0.578110000000     0.036678   
H480     H      0.698810000000     0.587010000000     0.534440000000     0.0350128  
H481     H      0.718130000000     0.587410000000     0.589910000000     0.0530867  
H482     H      0.658510000000     0.566690000000     0.508430000000     0.0363397  
H483     H      0.718520000000     0.654960000000     0.590270000000     0.059765   
H484     H      0.614260000000     0.602360000000     0.524840000000     0.0508798  
H485     H      0.617490000000     0.536320000000     0.523530000000     0.0508437  
H486     H      0.676630000000     0.625500000000     0.604040000000     0.0349406  
H487     H      0.576640000000     0.514890000000     0.500760000000     0.0230632  
H488     H      0.776060000000     0.693920000000     0.601160000000     0.0840238  
H489     H      0.747890000000     0.688250000000     0.619590000000     0.0687863  
H490     H      0.768940000000     0.685470000000     0.646820000000     0.0843694  
H491     H      0.911040000000     0.739910000000     0.664400000000     0.0225667  
H492     H      0.094840000000     0.762700000000     0.773010000000     0.0246895  
H493     H      0.970700000000     0.759640000000     0.744410000000     0.0367904  
H494     H      0.029540000000     0.735880000000     0.702420000000     0.0353472  
H495     H      0.053530000000     0.741070000000     0.753530000000     0.0540807  
H496     H      0.988350000000     0.715610000000     0.679000000000     0.0374336  
H497     H      0.051590000000     0.807390000000     0.750880000000     0.0594055  
H498     H      0.952030000000     0.758590000000     0.686620000000     0.0506174  
H499     H      0.944880000000     0.687970000000     0.697800000000     0.0514694  
H500     H      0.011550000000     0.779500000000     0.768450000000     0.0343696  
H501     H      0.903720000000     0.669670000000     0.675400000000     0.0241207  
H502     H      0.111200000000     0.847520000000     0.755780000000     0.0847532  
H503     H      0.082610000000     0.843310000000     0.769470000000     0.0683257  
H504     H      0.102050000000     0.841930000000     0.801460000000     0.0851171  
N1       N      0.698670000000     0.904290000000     0.773170000000    -0.207026   
N2       N      0.800720000000     0.096720000000     0.663760000000    -0.193922   
N3       N      0.877270000000     0.237890000000     0.607550000000    -0.20738    
N4       N      0.968740000000     0.429970000000     0.496940000000    -0.193463   
N5       N      0.033100000000     0.571580000000     0.443070000000    -0.207408   
N6       N      0.131510000000     0.762800000000     0.329230000000    -0.194315   
N7       N      0.535540000000     0.572030000000     0.943790000000    -0.207008   
N8       N      0.633630000000     0.763470000000     0.831570000000    -0.194118   
N9       N      0.205900000000     0.903910000000     0.272150000000    -0.20741    
N10      N      0.298180000000     0.096220000000     0.162160000000    -0.193733   
N11      N      0.363010000000     0.237320000000     0.105340000000    -0.207114   
N12      N      0.461900000000     0.430240000000     0.997560000000    -0.19383    
N13      N      0.660370000000     0.816340000000     0.700320000000    -0.208378   
N14      N      0.668660000000     0.823790000000     0.405110000000    -0.194221   
N15      N      0.674210000000     0.854360000000     0.200100000000    -0.207671   
N16      N      0.671870000000     0.850710000000     0.904320000000    -0.194045   
N17      N      0.703400000000     0.800110000000     0.278460000000    -0.207623   
N18      N      0.801740000000     0.705430000000     0.170520000000    -0.193746   
N19      N      0.537270000000     0.966890000000     0.442540000000    -0.207079   
N20      N      0.638970000000     0.878140000000     0.327800000000    -0.193893   
N21      N      0.001430000000     0.519270000000     0.867990000000    -0.20794    
N22      N      0.004630000000     0.515790000000     0.572380000000    -0.193828   
N23      N      0.007950000000     0.492070000000     0.072030000000    -0.207798   
N24      N      0.997460000000     0.486480000000     0.367130000000    -0.194118   
N25      N      0.874420000000     0.636770000000     0.113540000000    -0.206983   
N26      N      0.971730000000     0.543000000000     0.999300000000    -0.193918   
N27      N      0.327390000000     0.150130000000     0.735530000000    -0.207499   
N28      N      0.325290000000     0.150410000000     0.031250000000    -0.194035   
N29      N      0.337510000000     0.184770000000     0.531240000000    -0.207545   
N30      N      0.336320000000     0.183140000000     0.235650000000    -0.194095   
N31      N      0.459690000000     0.031060000000     0.497770000000    -0.207222   
N32      N      0.364800000000     0.128600000000     0.607780000000    -0.194196   
N33      N      0.130460000000     0.369010000000     0.829320000000    -0.207594   
N34      N      0.037530000000     0.468210000000     0.940510000000    -0.19401    
N35      N      0.207610000000     0.304850000000     0.771940000000    -0.207561   
N36      N      0.300580000000     0.206200000000     0.659220000000    -0.19429    
N37      N      0.484800000000     0.497230000000     0.573220000000    -0.207351   
N38      N      0.485430000000     0.486350000000     0.868260000000    -0.194041   
N39      N      0.518640000000     0.519250000000     0.368560000000    -0.208439   
N40      N      0.512190000000     0.515850000000     0.072920000000    -0.19415    
N41      N      0.850640000000     0.182760000000     0.737870000000    -0.208203   
N42      N      0.849820000000     0.171540000000     0.032760000000    -0.194304   
N43      N      0.819620000000     0.146850000000     0.237690000000    -0.208777   
N44      N      0.827040000000     0.151030000000     0.533200000000    -0.194142   
N45      N      0.156050000000     0.341100000000     0.698570000000    -0.208717   
N46      N      0.153650000000     0.336440000000     0.402800000000    -0.193851   
N47      N      0.181590000000     0.332840000000     0.902780000000    -0.208181   
N48      N      0.183580000000     0.342550000000     0.197890000000    -0.193749   
N49      N      0.906040000000     0.197440000000     0.162340000000    -0.206886   
N50      N      0.098100000000     0.303590000000     0.272270000000    -0.19379    
N51      N      0.430870000000     0.470140000000     0.441640000000    -0.207337   
N52      N      0.239300000000     0.374900000000     0.328320000000    -0.193636   
N53      N      0.514120000000     0.988680000000     0.868390000000    -0.207524   
N54      N      0.508990000000     0.993120000000     0.572910000000    -0.194313   
N55      N      0.486230000000     0.991440000000     0.073100000000    -0.208006   
N56      N      0.488930000000     0.004170000000     0.367870000000    -0.194274   
N57      N      0.763930000000     0.121260000000     0.108470000000    -0.207651   
N58      N      0.571700000000     0.025270000000     0.997620000000    -0.19405    
N59      N      0.178890000000     0.848940000000     0.402870000000    -0.207749   
N60      N      0.183810000000     0.841080000000     0.697030000000    -0.194803   
N61      N      0.157500000000     0.816490000000     0.197840000000    -0.208572   
N62      N      0.155280000000     0.821730000000     0.902580000000    -0.194449   
N63      N      0.240350000000     0.864720000000     0.825640000000    -0.207768   
N64      N      0.430070000000     0.955440000000     0.943990000000    -0.194456   
N65      N      0.820990000000     0.676610000000     0.744310000000    -0.207675   
N66      N      0.825950000000     0.675860000000     0.039930000000    -0.194157   
N67      N      0.846440000000     0.669670000000     0.539660000000    -0.207975   
N68      N      0.850090000000     0.667470000000     0.244240000000    -0.194078   
N69      N      0.762650000000     0.642830000000     0.615500000000    -0.207868   
N70      N      0.571730000000     0.545900000000     0.500270000000    -0.194408   
N71      N      0.097870000000     0.797950000000     0.773870000000    -0.2068     
N72      N      0.904180000000     0.703370000000     0.668630000000    -0.19418    
O1       O      0.871550000000     0.706520000000     0.650040000000    -0.401563   
O2       O      0.800340000000     0.676350000000     0.625880000000    -0.405006   
O3       O      0.828610000000     0.692800000000     0.688800000000    -0.406225   
O4       O      0.843670000000     0.690130000000     0.587120000000    -0.39974    
O5       O      0.838300000000     0.653210000000     0.594920000000    -0.404152   
O6       O      0.823680000000     0.656100000000     0.696770000000    -0.398887   
O7       O      0.795470000000     0.639710000000     0.634020000000    -0.40144    
O8       O      0.866920000000     0.669790000000     0.657740000000    -0.39721    
O9       O      0.134010000000     0.832180000000     0.788960000000    -0.405555   
O10      O      0.205400000000     0.865670000000     0.812840000000    -0.40595    
O11      O      0.178020000000     0.854370000000     0.749740000000    -0.402399   
O12      O      0.161720000000     0.843700000000     0.852330000000    -0.400348   
O13      O      0.160560000000     0.808210000000     0.849730000000    -0.399087   
O14      O      0.176630000000     0.818780000000     0.747110000000    -0.39934    
O15      O      0.204540000000     0.830440000000     0.810420000000    -0.397883   
O16      O      0.132800000000     0.796840000000     0.786610000000    -0.398396   
O17      O      0.466010000000     0.990540000000     0.954550000000    -0.400599   
O18      O      0.537340000000     0.025610000000     0.979900000000    -0.398825   
O19      O      0.510130000000     0.007960000000     0.916460000000    -0.398542   
O20      O      0.493110000000     0.008040000000     0.018000000000    -0.403536   
O21      O      0.492380000000     0.973120000000     0.025670000000    -0.399651   
O22      O      0.507520000000     0.972150000000     0.923630000000    -0.40477    
O23      O      0.535890000000     0.990160000000     0.986360000000    -0.398801   
O24      O      0.464170000000     0.955060000000     0.962980000000    -0.400509   
O25      O      0.204720000000     0.374950000000     0.310700000000    -0.397439   
O26      O      0.133080000000     0.338950000000     0.286110000000    -0.397111   
O27      O      0.160810000000     0.355180000000     0.349550000000    -0.399029   
O28      O      0.177060000000     0.358840000000     0.247220000000    -0.399001   
O29      O      0.177410000000     0.324130000000     0.251360000000    -0.397665   
O30      O      0.159400000000     0.319600000000     0.353390000000    -0.397619   
O31      O      0.132930000000     0.303950000000     0.289110000000    -0.399356   
O32      O      0.203970000000     0.339730000000     0.315590000000    -0.399187   
O33      O      0.798160000000     0.156990000000     0.123910000000    -0.400477   
O34      O      0.869410000000     0.195210000000     0.150090000000    -0.398417   
O35      O      0.842580000000     0.183040000000     0.086020000000    -0.39816    
O36      O      0.824850000000     0.169230000000     0.187960000000    -0.4037     
O37      O      0.828260000000     0.136230000000     0.184670000000    -0.402609   
O38      O      0.844110000000     0.148950000000     0.082160000000    -0.40047    
O39      O      0.871860000000     0.161830000000     0.145530000000    -0.405666   
O40      O      0.800450000000     0.123390000000     0.121440000000    -0.404772   
O41      O      0.464840000000     0.505780000000     0.458130000000    -0.39962    
O42      O      0.535970000000     0.544240000000     0.484750000000    -0.399439   
O43      O      0.509210000000     0.530680000000     0.420330000000    -0.39958    
O44      O      0.491540000000     0.519300000000     0.522450000000    -0.405145   
O45      O      0.492940000000     0.485230000000     0.520770000000    -0.400252   
O46      O      0.512410000000     0.497500000000     0.419220000000    -0.403735   
O47      O      0.537930000000     0.510300000000     0.484170000000    -0.400968   
O48      O      0.467270000000     0.472280000000     0.455770000000    -0.405003   
O49      O      0.132870000000     0.334940000000     0.815080000000    -0.404505   
O50      O      0.171930000000     0.302880000000     0.788970000000    -0.399784   
O51      O      0.158930000000     0.316710000000     0.853100000000    -0.400432   
O52      O      0.145830000000     0.320990000000     0.750990000000    -0.401461   
O53      O      0.178560000000     0.357610000000     0.748350000000    -0.403719   
O54      O      0.192770000000     0.352380000000     0.849750000000    -0.404487   
O55      O      0.205090000000     0.338990000000     0.784990000000    -0.404958   
O56      O      0.166290000000     0.370920000000     0.813170000000    -0.401261   
O57      O      0.298470000000     0.171000000000     0.640200000000    -0.40101    
O58      O      0.330570000000     0.131470000000     0.617020000000    -0.398061   
O59      O      0.312340000000     0.141990000000     0.679390000000    -0.404653   
O60      O      0.316580000000     0.160760000000     0.577920000000    -0.399331   
O61      O      0.352930000000     0.192760000000     0.587230000000    -0.404023   
O62      O      0.348620000000     0.174050000000     0.688880000000    -0.398354   
O63      O      0.366830000000     0.163800000000     0.626640000000    -0.401011   
O64      O      0.334760000000     0.203350000000     0.649590000000    -0.398412   
O65      O      0.003170000000     0.469990000000     0.953510000000    -0.399728   
O66      O      0.970190000000     0.507620000000     0.982480000000    -0.400307   
O67      O      0.984410000000     0.496460000000     0.917400000000    -0.403943   
O68      O      0.989000000000     0.481260000000     0.018540000000    -0.404208   
O69      O      0.024370000000     0.515380000000     0.022960000000    -0.399404   
O70      O      0.020850000000     0.529380000000     0.920990000000    -0.399503   
O71      O      0.006070000000     0.541480000000     0.985100000000    -0.397194   
O72      O      0.039210000000     0.503410000000     0.958780000000    -0.398332   
O73      O      0.637040000000     0.842740000000     0.310330000000    -0.399963   
O74      O      0.669140000000     0.803220000000     0.288020000000    -0.404566   
O75      O      0.651970000000     0.814840000000     0.350300000000    -0.399936   
O76      O      0.654120000000     0.831330000000     0.248020000000    -0.39918    
O77      O      0.690450000000     0.863760000000     0.255510000000    -0.404655   
O78      O      0.688480000000     0.847330000000     0.357640000000    -0.398505   
O79      O      0.705360000000     0.835790000000     0.295330000000    -0.400988   
O80      O      0.673300000000     0.875520000000     0.317870000000    -0.397197   
O81      O      0.839340000000     0.636360000000     0.130410000000    -0.405837   
O82      O      0.802610000000     0.670720000000     0.156760000000    -0.39805    
O83      O      0.814590000000     0.655920000000     0.092440000000    -0.398132   
O84      O      0.827560000000     0.651010000000     0.194620000000    -0.399037   
O85      O      0.861680000000     0.686630000000     0.191290000000    -0.39951    
O86      O      0.848550000000     0.691710000000     0.089520000000    -0.399167   
O87      O      0.836840000000     0.706260000000     0.153750000000    -0.398259   
O88      O      0.873470000000     0.671660000000     0.126980000000    -0.398098   
O89      O      0.501210000000     0.965020000000     0.457840000000    -0.405454   
O90      O      0.462310000000     0.997030000000     0.484480000000    -0.404537   
O91      O      0.476000000000     0.984300000000     0.420190000000    -0.400691   
O92      O      0.487580000000     0.977550000000     0.522230000000    -0.400179   
O93      O      0.520640000000     0.014100000000     0.521300000000    -0.398818   
O94      O      0.510170000000     0.019940000000     0.418620000000    -0.398737   
O95      O      0.495690000000     0.033070000000     0.482240000000    -0.39835    
O96      O      0.534940000000     0.000770000000     0.457730000000    -0.397702   
O97      O      0.332370000000     0.132230000000     0.147950000000    -0.397097   
O98      O      0.364780000000     0.203250000000     0.120960000000    -0.399352   
O99      O      0.351890000000     0.177030000000     0.185280000000    -0.399025   
O100     O      0.345650000000     0.158900000000     0.083360000000    -0.398745   
O101     O      0.309460000000     0.156340000000     0.081560000000    -0.398584   
O102     O      0.315540000000     0.174130000000     0.183780000000    -0.399165   
O103     O      0.328830000000     0.200900000000     0.119430000000    -0.404493   
O104     O      0.296310000000     0.129940000000     0.145760000000    -0.399508   
O105     O      0.496970000000     0.464250000000     0.980080000000    -0.397636   
O106     O      0.534270000000     0.535910000000     0.956310000000    -0.398141   
O107     O      0.522590000000     0.507830000000     0.019370000000    -0.398765   
O108     O      0.508730000000     0.492260000000     0.916950000000    -0.398772   
O109     O      0.474350000000     0.493180000000     0.922140000000    -0.398808   
O110     O      0.489200000000     0.510650000000     0.024070000000    -0.399342   
O111     O      0.500280000000     0.537400000000     0.960180000000    -0.405488   
O112     O      0.463240000000     0.466320000000     0.986030000000    -0.39896    
O113     O      0.204270000000     0.867780000000     0.286080000000    -0.40572    
O114     O      0.166810000000     0.796790000000     0.312520000000    -0.398919   
O115     O      0.179740000000     0.823440000000     0.248130000000    -0.399721   
O116     O      0.191270000000     0.841320000000     0.350310000000    -0.40062    
O117     O      0.157260000000     0.842850000000     0.351870000000    -0.406463   
O118     O      0.145470000000     0.824640000000     0.250180000000    -0.405093   
O119     O      0.132670000000     0.798390000000     0.314550000000    -0.401091   
O120     O      0.170290000000     0.869430000000     0.287500000000    -0.399524   
O121     O      0.002800000000     0.466370000000     0.484230000000    -0.397277   
O122     O      0.034910000000     0.537470000000     0.458350000000    -0.3996     
O123     O      0.021320000000     0.510720000000     0.522320000000    -0.3986     
O124     O      0.016530000000     0.493280000000     0.420140000000    -0.397423   
O125     O      0.980740000000     0.491530000000     0.417170000000    -0.399072   
O126     O      0.984670000000     0.507070000000     0.519900000000    -0.400677   
O127     O      0.998920000000     0.535030000000     0.456650000000    -0.404896   
O128     O      0.966550000000     0.463550000000     0.480420000000    -0.397983   
O129     O      0.874950000000     0.201270000000     0.620420000000    -0.405407   
O130     O      0.836480000000     0.130410000000     0.647680000000    -0.398533   
O131     O      0.849070000000     0.156530000000     0.583150000000    -0.398741   
O132     O      0.862370000000     0.175090000000     0.684850000000    -0.404787   
O133     O      0.828350000000     0.176710000000     0.687900000000    -0.399996   
O134     O      0.816020000000     0.160090000000     0.585530000000    -0.398799   
O135     O      0.802740000000     0.132760000000     0.649390000000    -0.398389   
O136     O      0.841620000000     0.204000000000     0.624120000000    -0.39981    
O137     O      0.667830000000     0.799360000000     0.817050000000    -0.397456   
O138     O      0.700280000000     0.870250000000     0.789490000000    -0.399698   
O139     O      0.687410000000     0.844330000000     0.854090000000    -0.398593   
O140     O      0.680960000000     0.825690000000     0.752370000000    -0.400017   
O141     O      0.644800000000     0.823010000000     0.750580000000    -0.404009   
O142     O      0.651200000000     0.841760000000     0.852380000000    -0.399222   
O143     O      0.664380000000     0.867990000000     0.787540000000    -0.404083   
O144     O      0.631830000000     0.797250000000     0.815290000000    -0.401171   


