data_structure

_audit_creation_method RASPA-1.0
_audit_creation_date 2023-6-5
_audit_author_name 'Poobodin Mano'

_cell_length_a    63.7007
_cell_length_b    63.6814
_cell_length_c    38.4583
_cell_angle_alpha 89.9393
_cell_angle_beta  90.0604
_cell_angle_gamma 119.921
_cell_volume      135214

_symmetry_cell_setting          triclinic
_symmetry_space_group_name_Hall 'P 1'
_symmetry_space_group_name_H-M  'P 1'
_symmetry_Int_Tables_number     1

_symmetry_equiv_pos_as_xyz 'x,y,z'

loop_
_atom_site_label
_atom_site_type_symbol
_atom_site_fract_x
_atom_site_fract_y
_atom_site_fract_z
_atom_site_charge
C1       C      0.881180000000     0.689320000000     0.655410000000     0.408582   
C2       C      0.787910000000     0.643760000000     0.618820000000     0.407579   
C3       C      0.822770000000     0.663630000000     0.704220000000     0.4305     
C4       C      0.846270000000     0.669330000000     0.569940000000     0.431313   
C5       C      0.120900000000     0.812100000000     0.786740000000     0.430641   
C6       C      0.214540000000     0.862230000000     0.821340000000     0.431772   
C7       C      0.178540000000     0.847530000000     0.736920000000     0.408545   
C8       C      0.157110000000     0.826720000000     0.871280000000     0.431679   
C9       C      0.454200000000     0.982370000000     0.952980000000     0.406725   
C10      C      0.547460000000     0.027930000000     0.989610000000     0.406389   
C11      C      0.512550000000     0.008060000000     0.904200000000     0.406793   
C12      C      0.489070000000     0.002130000000     0.038420000000     0.40715    
C13      C      0.214750000000     0.360120000000     0.321050000000     0.431849   
C14      C      0.121330000000     0.313880000000     0.284770000000     0.430987   
C15      C      0.156450000000     0.334570000000     0.370020000000     0.408826   
C16      C      0.179810000000     0.339490000000     0.235830000000     0.432768   
C17      C      0.787840000000     0.146370000000     0.118790000000     0.43095    
C18      C      0.881500000000     0.193100000000     0.153550000000     0.408988   
C19      C      0.845850000000     0.177280000000     0.068700000000     0.432241   
C20      C      0.823660000000     0.162490000000     0.203600000000     0.43214    
C21      C      0.547840000000     0.525520000000     0.488550000000     0.430514   
C22      C      0.454380000000     0.479850000000     0.452780000000     0.408494   
C23      C      0.489640000000     0.494830000000     0.538000000000     0.432796   
C24      C      0.512610000000     0.510710000000     0.403440000000     0.407864   
C25      C      0.145970000000     0.361650000000     0.821160000000     0.407963   
C26      C      0.192160000000     0.314390000000     0.784930000000     0.431038   
C27      C      0.178080000000     0.335300000000     0.870100000000     0.408345   
C28      C      0.159830000000     0.340660000000     0.735880000000     0.431681   
C29      C      0.310320000000     0.192420000000     0.654660000000     0.408416   
C30      C      0.356720000000     0.145130000000     0.620040000000     0.40738    
C31      C      0.335700000000     0.159810000000     0.704620000000     0.407269   
C32      C      0.331380000000     0.177640000000     0.569970000000     0.431391   
C33      C      0.026260000000     0.481710000000     0.952780000000     0.431651   
C34      C      0.976920000000     0.525950000000     0.987970000000     0.4032     
C35      C      0.997880000000     0.511680000000     0.903070000000     0.426297   
C36      C      0.005180000000     0.496030000000     0.037760000000     0.438448   
C37      C      0.651350000000     0.866910000000     0.321360000000     0.432392   
C38      C      0.694570000000     0.816480000000     0.286650000000     0.430583   
C39      C      0.674240000000     0.831980000000     0.371300000000     0.432122   
C40      C      0.671640000000     0.851270000000     0.236740000000     0.408694   
C41      C      0.808360000000     0.690710000000     0.154890000000     0.407066   
C42      C      0.853990000000     0.642900000000     0.118840000000     0.430725   
C43      C      0.840140000000     0.664060000000     0.204000000000     0.407845   
C44      C      0.822340000000     0.669670000000     0.069720000000     0.40773    
C45      C      0.529420000000     0.984510000000     0.453410000000     0.409635   
C46      C      0.479030000000     0.027550000000     0.489060000000     0.431911   
C47      C      0.495090000000     0.008250000000     0.404010000000     0.431427   
C48      C      0.513480000000     0.003970000000     0.538540000000     0.432526   
C49      C      0.318360000000     0.124380000000     0.155070000000     0.430814   
C50      C      0.362820000000     0.217980000000     0.120120000000     0.408776   
C51      C      0.343350000000     0.182240000000     0.205000000000     0.407926   
C52      C      0.337760000000     0.160110000000     0.070250000000     0.43229    
C53      C      0.481160000000     0.457460000000     0.987700000000     0.431085   
C54      C      0.530300000000     0.551190000000     0.953290000000     0.431767   
C55      C      0.514560000000     0.515170000000     0.037840000000     0.433299   
C56      C      0.497000000000     0.493480000000     0.903090000000     0.409262   
C57      C      0.195640000000     0.884520000000     0.286000000000     0.407      
C58      C      0.145430000000     0.791250000000     0.322470000000     0.431885   
C59      C      0.161720000000     0.826360000000     0.237070000000     0.407998   
C60      C      0.179310000000     0.849480000000     0.371490000000     0.431711   
C61      C      0.024500000000     0.551200000000     0.453080000000     0.40657    
C62      C      0.977580000000     0.457660000000     0.488470000000     0.400138   
C63      C      0.998220000000     0.493050000000     0.403540000000     0.40113    
C64      C      0.004040000000     0.515680000000     0.538020000000     0.413306   
C65      C      0.857750000000     0.217500000000     0.618720000000     0.430023   
C66      C      0.813100000000     0.123760000000     0.653230000000     0.430648   
C67      C      0.828040000000     0.159540000000     0.568580000000     0.409307   
C68      C      0.842790000000     0.181550000000     0.703430000000     0.408842   
C69      C      0.652270000000     0.791090000000     0.822570000000     0.40702    
C70      C      0.696200000000     0.884280000000     0.785710000000     0.408554   
C71      C      0.676820000000     0.849540000000     0.871190000000     0.431705   
C72      C      0.671840000000     0.826100000000     0.737000000000     0.406449   
C73      C      0.802970000000     0.064340000000     0.682390000000    -0.217664   
C74      C      0.694170000000     0.918950000000     0.767050000000     0.0754959  
C75      C      0.732140000000     0.920620000000     0.770060000000     0.0768957  
C76      C      0.705280000000     0.942610000000     0.754120000000    -0.0907845  
C77      C      0.731400000000     0.986500000000     0.707030000000    -0.0383737  
C78      C      0.742950000000     0.009780000000     0.692690000000    -0.0230451  
C79      C      0.742470000000     0.980410000000     0.733830000000    -0.00071271 
C80      C      0.743800000000     0.944240000000     0.757090000000    -0.090196   
C81      C      0.765880000000     0.027490000000     0.704700000000    -0.0260115  
C82      C      0.765210000000     0.064280000000     0.683010000000    -0.126412   
C83      C      0.776940000000     0.021440000000     0.731500000000    -0.0223155  
C84      C      0.777200000000     0.087960000000     0.670250000000     0.0961631  
C85      C      0.814470000000     0.088010000000     0.669440000000     0.414437   
C86      C      0.765360000000     0.998200000000     0.745940000000    -0.0377389  
C87      C      0.730370000000     0.955510000000     0.748680000000     0.0506472  
C88      C      0.778140000000     0.052280000000     0.689670000000     0.109431   
C89      C      0.867960000000     0.277010000000     0.589800000000    -0.217125   
C90      C      0.978210000000     0.422150000000     0.506470000000     0.0732175  
C91      C      0.940910000000     0.421920000000     0.503820000000     0.0741297  
C92      C      0.966450000000     0.398410000000     0.519060000000    -0.0913703  
C93      C      0.934600000000     0.343880000000     0.527650000000    -0.0385051  
C94      C      0.922920000000     0.320510000000     0.541650000000    -0.0229705  
C95      C      0.928720000000     0.361260000000     0.539110000000    -0.00104585 
C96      C      0.928600000000     0.398210000000     0.516550000000    -0.091011   
C97      C      0.905160000000     0.313970000000     0.567570000000    -0.0256937  
C98      C      0.905650000000     0.276970000000     0.588990000000    -0.126075   
C99      C      0.899260000000     0.331370000000     0.578980000000    -0.0224473  
C100     C      0.893650000000     0.253290000000     0.601710000000     0.0961315  
C101     C      0.856420000000     0.253300000000     0.602620000000     0.41418    
C102     C      0.910880000000     0.354720000000     0.564880000000    -0.0379029  
C103     C      0.941380000000     0.386220000000     0.524580000000     0.0498972  
C104     C      0.892790000000     0.289070000000     0.582440000000     0.109079   
C105     C      0.096130000000     0.732390000000     0.353210000000    -0.216664   
C106     C      0.061020000000     0.587010000000     0.437340000000     0.0751075  
C107     C      0.023660000000     0.586680000000     0.435650000000     0.0755737  
C108     C      0.073150000000     0.610720000000     0.424590000000    -0.0909356  
C109     C      0.090070000000     0.653940000000     0.375950000000    -0.0376512  
C110     C      0.101550000000     0.677250000000     0.361750000000    -0.022261   
C111     C      0.072650000000     0.647550000000     0.402310000000    -0.000461124
C112     C      0.035230000000     0.610420000000     0.423070000000    -0.0908029  
C113     C      0.095970000000     0.694780000000     0.373670000000    -0.0247883  
C114     C      0.133290000000     0.731330000000     0.351200000000    -0.124564   
C115     C      0.078530000000     0.688350000000     0.400040000000    -0.0216533  
C116     C      0.145040000000     0.754990000000     0.338410000000     0.0994463  
C117     C      0.108410000000     0.756130000000     0.340450000000     0.415826   
C118     C      0.066970000000     0.665000000000     0.414140000000    -0.0372831  
C119     C      0.060230000000     0.622650000000     0.417020000000     0.0509361  
C120     C      0.108570000000     0.719760000000     0.359050000000     0.110324   
C121     C      0.543640000000     0.611930000000     0.925480000000    -0.216919   
C122     C      0.654210000000     0.756400000000     0.841510000000     0.0749159  
C123     C      0.616300000000     0.754880000000     0.838450000000     0.074886   
C124     C      0.643050000000     0.732810000000     0.854750000000    -0.0907902  
C125     C      0.611580000000     0.677940000000     0.864560000000    -0.0385387  
C126     C      0.599640000000     0.654550000000     0.878560000000    -0.0231606  
C127     C      0.605860000000     0.695460000000     0.875890000000    -0.00108773 
C128     C      0.604610000000     0.731380000000     0.851840000000    -0.0916127  
C129     C      0.581810000000     0.648190000000     0.904350000000    -0.0254031  
C130     C      0.580280000000     0.609850000000     0.924450000000    -0.125846   
C131     C      0.576420000000     0.665890000000     0.916050000000    -0.0223438  
C132     C      0.567240000000     0.586030000000     0.936590000000     0.0968714  
C133     C      0.531090000000     0.588110000000     0.937750000000     0.417243   
C134     C      0.588250000000     0.689210000000     0.901920000000    -0.0375336  
C135     C      0.618000000000     0.720140000000     0.860500000000     0.0503674  
C136     C      0.568470000000     0.623070000000     0.918430000000     0.10967    
C137     C      0.308060000000     0.064840000000     0.184000000000    -0.217197   
C138     C      0.196540000000     0.921110000000     0.270090000000     0.0751949  
C139     C      0.232560000000     0.918880000000     0.267520000000     0.0756181  
C140     C      0.208720000000     0.944670000000     0.256910000000    -0.0911178  
C141     C      0.235260000000     0.987130000000     0.207550000000    -0.0382811  
C142     C      0.247270000000     0.010450000000     0.193420000000    -0.0228879  
C143     C      0.246310000000     0.980320000000     0.233420000000    -0.000784702
C144     C      0.245330000000     0.942490000000     0.254450000000    -0.0902981  
C145     C      0.270620000000     0.027570000000     0.204910000000    -0.0254688  
C146     C      0.270270000000     0.064700000000     0.183760000000    -0.126046   
C147     C      0.281750000000     0.020690000000     0.230620000000    -0.0222295  
C148     C      0.282340000000     0.088440000000     0.171280000000     0.0966161  
C149     C      0.319690000000     0.088650000000     0.171580000000     0.415475   
C150     C      0.269750000000     0.997320000000     0.244660000000    -0.0376962  
C151     C      0.233350000000     0.955570000000     0.248590000000     0.0506016  
C152     C      0.283120000000     0.052630000000     0.190570000000     0.109508   
C153     C      0.432380000000     0.398400000000     0.018530000000    -0.217245   
C154     C      0.398880000000     0.254320000000     0.104800000000     0.0779545  
C155     C      0.361010000000     0.252850000000     0.102000000000     0.0765057  
C156     C      0.410620000000     0.277980000000     0.091940000000    -0.0893829  
C157     C      0.432420000000     0.331960000000     0.080570000000    -0.0375936  
C158     C      0.444010000000     0.355190000000     0.066100000000    -0.0221493  
C159     C      0.409380000000     0.314270000000     0.068810000000     9.71374e-05
C160     C      0.372180000000     0.276540000000     0.089240000000    -0.0901885  
C161     C      0.432790000000     0.361330000000     0.039650000000    -0.0253893  
C162     C      0.469770000000     0.397770000000     0.016370000000    -0.126422   
C163     C      0.409710000000     0.343740000000     0.028010000000    -0.0216667  
C164     C      0.481260000000     0.421360000000     0.003270000000     0.097164   
C165     C      0.444400000000     0.422080000000     0.005620000000     0.417195   
C166     C      0.398170000000     0.320460000000     0.042340000000    -0.0367335  
C167     C      0.397260000000     0.289360000000     0.083670000000     0.0513923  
C168     C      0.445100000000     0.386090000000     0.024500000000     0.110583   
C169     C      0.653900000000     0.808230000000     0.459560000000    -0.216409   
C170     C      0.691780000000     0.824510000000     0.685550000000     0.0743479  
C171     C      0.651150000000     0.816240000000     0.682570000000     0.074423   
C172     C      0.692600000000     0.822950000000     0.649410000000    -0.0925123  
C173     C      0.689620000000     0.839980000000     0.574140000000    -0.0384051  
C174     C      0.690140000000     0.841140000000     0.537880000000    -0.0228193  
C175     C      0.673530000000     0.818430000000     0.591220000000    -0.0017687  
C176     C      0.651180000000     0.813950000000     0.646440000000    -0.0920429  
C177     C      0.674940000000     0.820570000000     0.517760000000    -0.0247153  
C178     C      0.696150000000     0.838310000000     0.460910000000    -0.123748   
C179     C      0.659190000000     0.798800000000     0.535200000000    -0.0223131  
C180     C      0.695480000000     0.841080000000     0.424990000000     0.099205   
C181     C      0.653950000000     0.810950000000     0.423460000000     0.415113   
C182     C      0.658280000000     0.797840000000     0.571560000000    -0.0385337  
C183     C      0.672250000000     0.817900000000     0.629550000000     0.0505372  
C184     C      0.675060000000     0.822160000000     0.478960000000     0.108886   
C185     C      0.698780000000     0.865590000000     0.961020000000    -0.21762    
C186     C      0.651540000000     0.841120000000     0.181860000000     0.0765203  
C187     C      0.692370000000     0.872860000000     0.185720000000     0.0785119  
C188     C      0.651970000000     0.843720000000     0.145740000000    -0.0912585  
C189     C      0.659590000000     0.866800000000     0.071060000000    -0.0386057  
C190     C      0.660780000000     0.866970000000     0.034720000000    -0.0225099  
C191     C      0.674960000000     0.861720000000     0.090970000000    -0.000588075
C192     C      0.693600000000     0.875510000000     0.149600000000    -0.0899005  
C193     C      0.676970000000     0.861430000000     0.017530000000    -0.024974   
C194     C      0.656360000000     0.852770000000     0.958970000000    -0.125314   
C195     C      0.692300000000     0.856310000000     0.037870000000    -0.0216158  
C196     C      0.656850000000     0.850330000000     0.922940000000     0.0961687  
C197     C      0.698550000000     0.862340000000     0.925060000000     0.415257   
C198     C      0.691480000000     0.856740000000     0.074130000000    -0.0378759  
C199     C      0.673340000000     0.860670000000     0.129290000000     0.0515926  
C200     C      0.677420000000     0.860190000000     0.978730000000     0.108669   
C201     C      0.741490000000     0.802420000000     0.259180000000    -0.218192   
C202     C      0.772420000000     0.690440000000     0.172790000000     0.0743774  
C203     C      0.809710000000     0.727490000000     0.171010000000     0.0743793  
C204     C      0.760640000000     0.702310000000     0.185720000000    -0.0915212  
C205     C      0.738960000000     0.735210000000     0.195210000000    -0.0384879  
C206     C      0.727770000000     0.747330000000     0.209500000000    -0.0230266  
C207     C      0.761780000000     0.740020000000     0.207180000000    -0.00121332 
C208     C      0.798530000000     0.739890000000     0.184180000000    -0.0915648  
C209     C      0.739100000000     0.764420000000     0.236240000000    -0.0257476  
C210     C      0.702460000000     0.766350000000     0.255940000000    -0.125681   
C211     C      0.761820000000     0.768980000000     0.248430000000    -0.0224815  
C212     C      0.691910000000     0.779510000000     0.268480000000     0.0968801  
C213     C      0.730450000000     0.815090000000     0.271830000000     0.415119   
C214     C      0.773060000000     0.756990000000     0.233990000000    -0.0380379  
C215     C      0.773760000000     0.727280000000     0.191990000000     0.0501733  
C216     C      0.727530000000     0.777820000000     0.250800000000     0.109485   
C217     C      0.641800000000     0.916330000000     0.351760000000    -0.21672    
C218     C      0.530250000000     0.948860000000     0.437100000000     0.0782331  
C219     C      0.566410000000     0.986960000000     0.435510000000     0.0782721  
C220     C      0.542430000000     0.937510000000     0.423800000000    -0.0900884  
C221     C      0.569300000000     0.922330000000     0.373800000000    -0.0375546  
C222     C      0.581300000000     0.911100000000     0.359410000000    -0.022205   
C223     C      0.580080000000     0.939480000000     0.400540000000    -0.000139407
C224     C      0.579200000000     0.976150000000     0.422400000000    -0.0897543  
C225     C      0.604340000000     0.916630000000     0.371550000000    -0.0248826  
C226     C      0.603560000000     0.879310000000     0.348910000000    -0.124747   
C227     C      0.615200000000     0.933950000000     0.398140000000    -0.021573   
C228     C      0.615460000000     0.867490000000     0.336330000000     0.0991946  
C229     C      0.653260000000     0.903980000000     0.339260000000     0.415872   
C230     C      0.603240000000     0.945300000000     0.412390000000    -0.0370589  
C231     C      0.567130000000     0.951190000000     0.415940000000     0.0518966  
C232     C      0.616720000000     0.903990000000     0.357070000000     0.110258   
C233     C      0.012850000000     0.538570000000     0.815580000000    -0.210601   
C234     C      0.987200000000     0.522900000000     0.588910000000     0.0721723  
C235     C      0.022510000000     0.519450000000     0.593210000000     0.0770845  
C236     C      0.986500000000     0.524800000000     0.625040000000    -0.097679   
C237     C      0.999800000000     0.540310000000     0.702380000000    -0.0419326  
C238     C      0.998170000000     0.539370000000     0.738700000000    -0.0231849  
C239     C      0.001810000000     0.522360000000     0.683970000000     0.00124093 
C240     C      0.022090000000     0.520860000000     0.629360000000    -0.0936363  
C241     C      0.997960000000     0.520150000000     0.756980000000    -0.0235981  
C242     C      0.979530000000     0.497720000000     0.812000000000    -0.125345   
C243     C      0.999660000000     0.502070000000     0.738460000000    -0.0299192  
C244     C      0.979680000000     0.496090000000     0.848150000000     0.096124   
C245     C      0.012870000000     0.536260000000     0.851740000000     0.420591   
C246     C      0.001760000000     0.503270000000     0.702330000000    -0.0311382  
C247     C      0.003730000000     0.523160000000     0.645630000000     0.0572751  
C248     C      0.996480000000     0.518970000000     0.795350000000     0.104387   
C249     C      0.023080000000     0.507760000000     0.129740000000    -0.2181     
C250     C      0.979890000000     0.488610000000     0.347980000000     0.0715264  
C251     C      0.014960000000     0.484910000000     0.353490000000     0.0767798  
C252     C      0.980190000000     0.486230000000     0.311920000000    -0.0855509  
C253     C      0.979060000000     0.471570000000     0.236900000000    -0.0468464  
C254     C      0.980700000000     0.472460000000     0.200650000000    -0.0245016  
C255     C      0.000080000000     0.482570000000     0.257560000000     0.0144248  
C256     C      0.015610000000     0.482140000000     0.317580000000    -0.0814245  
C257     C      0.003400000000     0.484140000000     0.184060000000    -0.0222754  
C258     C      0.988220000000     0.468040000000     0.124020000000    -0.13134    
C259     C      0.024420000000     0.494420000000     0.204720000000    -0.0193231  
C260     C      0.988960000000     0.471410000000     0.088080000000     0.0949174  
C261     C      0.023550000000     0.510510000000     0.093650000000     0.418857   
C262     C      0.022780000000     0.493780000000     0.240960000000    -0.0413511  
C263     C      0.998410000000     0.483300000000     0.296140000000     0.0356624  
C264     C      0.005100000000     0.486520000000     0.145480000000     0.116124   
C265     C      0.864910000000     0.594060000000     0.090000000000    -0.217696   
C266     C      0.976470000000     0.561640000000     0.005200000000     0.0785434  
C267     C      0.939790000000     0.524000000000     0.003640000000     0.0764469  
C268     C      0.964240000000     0.573180000000     0.017620000000    -0.0889571  
C269     C      0.931240000000     0.594560000000     0.025920000000    -0.0380657  
C270     C      0.919320000000     0.605980000000     0.040020000000    -0.0220499  
C271     C      0.926160000000     0.571670000000     0.038010000000     4.8974e-05 
C272     C      0.927010000000     0.534960000000     0.016220000000    -0.0902531  
C273     C      0.902110000000     0.594830000000     0.066640000000    -0.025669   
C274     C      0.902140000000     0.632140000000     0.087580000000    -0.1264     
C275     C      0.896960000000     0.571870000000     0.078600000000    -0.0218151  
C276     C      0.889960000000     0.643580000000     0.100580000000     0.0964295  
C277     C      0.853200000000     0.606000000000     0.103080000000     0.414602   
C278     C      0.908820000000     0.560410000000     0.064410000000    -0.0374516  
C279     C      0.939250000000     0.559800000000     0.023600000000     0.051438   
C280     C      0.889580000000     0.607130000000     0.081720000000     0.109832   
C281     C      0.356320000000     0.156750000000     0.980890000000    -0.217015   
C282     C      0.315950000000     0.138030000000     0.756010000000     0.0750579  
C283     C      0.356520000000     0.170450000000     0.758930000000     0.075269   
C284     C      0.315340000000     0.135260000000     0.792080000000    -0.0922799  
C285     C      0.319200000000     0.154570000000     0.868240000000    -0.038509   
C286     C      0.319120000000     0.154720000000     0.904530000000    -0.0225373  
C287     C      0.334870000000     0.149000000000     0.850120000000    -0.00135038 
C288     C      0.356710000000     0.167760000000     0.794960000000    -0.091955   
C289     C      0.334350000000     0.148760000000     0.923590000000    -0.0249465  
C290     C      0.314170000000     0.145110000000     0.981400000000    -0.125262   
C291     C      0.349600000000     0.142570000000     0.905100000000    -0.0215937  
C292     C      0.315500000000     0.148340000000     0.017380000000     0.0977923  
C293     C      0.356940000000     0.159230000000     0.017050000000     0.416943   
C294     C      0.350070000000     0.143000000000     0.868730000000    -0.0379434  
C295     C      0.335800000000     0.150350000000     0.811840000000     0.0511779  
C296     C      0.334870000000     0.149900000000     0.962410000000     0.109587   
C297     C      0.349090000000     0.205010000000     0.482980000000    -0.218089   
C298     C      0.361510000000     0.185820000000     0.260440000000     0.0769074  
C299     C      0.326430000000     0.189620000000     0.255620000000     0.0757822  
C300     C      0.360950000000     0.187300000000     0.296600000000    -0.090689   
C301     C      0.340100000000     0.170130000000     0.369670000000    -0.0383072  
C302     C      0.337380000000     0.168910000000     0.405740000000    -0.0220535  
C303     C      0.340540000000     0.189270000000     0.350920000000    -0.000645231
C304     C      0.325620000000     0.191640000000     0.291710000000    -0.0911374  
C305     C      0.335470000000     0.187030000000     0.423810000000    -0.026746   
C306     C      0.315300000000     0.164510000000     0.478060000000    -0.127737   
C307     C      0.336210000000     0.206370000000     0.405160000000    -0.0216556  
C308     C      0.314410000000     0.162690000000     0.514230000000     0.0972248  
C309     C      0.348060000000     0.202490000000     0.519180000000     0.415607   
C310     C      0.338440000000     0.207330000000     0.368900000000    -0.0375757  
C311     C      0.342660000000     0.189880000000     0.312590000000     0.0514797  
C312     C      0.333010000000     0.185680000000     0.462100000000     0.111098   
C313     C      0.429490000000     0.036730000000     0.519780000000    -0.217028   
C314     C      0.393210000000     0.145800000000     0.604350000000     0.0760557  
C315     C      0.355870000000     0.108820000000     0.602510000000     0.0751751  
C316     C      0.405380000000     0.134310000000     0.591470000000    -0.0906464  
C317     C      0.422370000000     0.108440000000     0.542360000000    -0.0379069  
C318     C      0.434120000000     0.096890000000     0.528140000000    -0.0225281  
C319     C      0.405050000000     0.097260000000     0.568790000000    -0.000746814
C320     C      0.367510000000     0.096730000000     0.589790000000    -0.0910194  
C321     C      0.428910000000     0.073920000000     0.540130000000    -0.0251282  
C322     C      0.466410000000     0.075100000000     0.517310000000    -0.125321   
C323     C      0.411540000000     0.062730000000     0.566580000000    -0.022223   
C324     C      0.478320000000     0.063340000000     0.504510000000     0.0981531  
C325     C      0.441930000000     0.025440000000     0.507060000000     0.416894   
C326     C      0.399700000000     0.074240000000     0.580670000000    -0.0375642  
C327     C      0.392510000000     0.109550000000     0.583700000000     0.0508496  
C328     C      0.441730000000     0.061780000000     0.525440000000     0.110145   
C329     C      0.075740000000     0.471740000000     0.924120000000    -0.216163   
C330     C      0.110060000000     0.361120000000     0.839800000000     0.0769353  
C331     C      0.147040000000     0.398390000000     0.836750000000     0.0760328  
C332     C      0.098230000000     0.372900000000     0.852850000000    -0.0901267  
C333     C      0.081830000000     0.399810000000     0.900340000000    -0.0374006  
C334     C      0.070310000000     0.411610000000     0.914500000000    -0.0223048  
C335     C      0.098970000000     0.410660000000     0.873560000000    -0.00024874 
C336     C      0.135770000000     0.410740000000     0.849860000000    -0.0902287  
C337     C      0.075730000000     0.434590000000     0.902340000000    -0.02488    
C338     C      0.038150000000     0.433950000000     0.923130000000    -0.125752   
C339     C      0.093000000000     0.445550000000     0.875780000000    -0.0218491  
C340     C      0.026360000000     0.445900000000     0.935640000000     0.0982797  
C341     C      0.063450000000     0.483210000000     0.936820000000     0.418375   
C342     C      0.104460000000     0.433700000000     0.861510000000    -0.0367402  
C343     C      0.111120000000     0.397980000000     0.858430000000     0.0512274  
C344     C      0.063090000000     0.446900000000     0.916870000000     0.110835   
C345     C      0.239970000000     0.302270000000     0.755140000000    -0.217791   
C346     C      0.273770000000     0.191990000000     0.669390000000     0.0758433  
C347     C      0.311330000000     0.228590000000     0.673200000000     0.0772881  
C348     C      0.261620000000     0.203520000000     0.682280000000    -0.0907958  
C349     C      0.239300000000     0.235430000000     0.693840000000    -0.0374128  
C350     C      0.227680000000     0.247150000000     0.707990000000    -0.0224933  
C351     C      0.262180000000     0.240540000000     0.706120000000    -0.000435203
C352     C      0.299760000000     0.240700000000     0.686000000000    -0.0899095  
C353     C      0.238710000000     0.264330000000     0.734650000000    -0.0254356  
C354     C      0.201890000000     0.264990000000     0.756260000000    -0.125676   
C355     C      0.261510000000     0.269360000000     0.747060000000    -0.0221323  
C356     C      0.190850000000     0.277660000000     0.768930000000     0.097671   
C357     C      0.228410000000     0.314500000000     0.767610000000     0.415855   
C358     C      0.273080000000     0.257580000000     0.733030000000    -0.0371537  
C359     C      0.274640000000     0.228130000000     0.691130000000     0.051201   
C360     C      0.226700000000     0.277310000000     0.749000000000     0.110375   
C361     C      0.479000000000     0.468480000000     0.625810000000    -0.217378   
C362     C      0.511070000000     0.489530000000     0.847520000000     0.0770851  
C363     C      0.472510000000     0.486390000000     0.852700000000     0.0790951  
C364     C      0.508780000000     0.487890000000     0.811400000000    -0.0916008  
C365     C      0.504940000000     0.504790000000     0.738240000000    -0.0378101  
C366     C      0.503440000000     0.505600000000     0.702120000000    -0.0217402  
C367     C      0.486240000000     0.485940000000     0.757280000000    -0.000341515
C368     C      0.469430000000     0.484240000000     0.816630000000    -0.0894785  
C369     C      0.483380000000     0.487360000000     0.684290000000    -0.0262862  
C370     C      0.486230000000     0.509270000000     0.629130000000    -0.127579   
C371     C      0.464720000000     0.468360000000     0.703250000000    -0.0212592  
C372     C      0.487440000000     0.510630000000     0.592940000000     0.0982214  
C373     C      0.480770000000     0.470530000000     0.589570000000     0.418      
C374     C      0.466010000000     0.467810000000     0.739560000000    -0.0371331  
C375     C      0.487950000000     0.485570000000     0.795600000000     0.0522832  
C376     C      0.482390000000     0.488190000000     0.645920000000     0.111839   
C377     C      0.507190000000     0.527960000000     0.128840000000    -0.218038   
C378     C      0.522960000000     0.499260000000     0.350020000000     0.0765298  
C379     C      0.515320000000     0.532040000000     0.351230000000     0.0754407  
C380     C      0.526240000000     0.501580000000     0.314030000000    -0.0896434  
C381     C      0.516880000000     0.499180000000     0.237140000000    -0.0373975  
C382     C      0.517210000000     0.500160000000     0.200870000000    -0.0217148  
C383     C      0.524410000000     0.520310000000     0.257080000000    -9.27742e-05
C384     C      0.517870000000     0.534470000000     0.315150000000    -0.0900509  
C385     C      0.524520000000     0.522140000000     0.183690000000    -0.0270651  
C386     C      0.537800000000     0.516430000000     0.125340000000    -0.12837    
C387     C      0.532060000000     0.543290000000     0.203180000000    -0.0221965  
C388     C      0.535250000000     0.515130000000     0.089240000000     0.0984762  
C389     C      0.504600000000     0.525930000000     0.092700000000     0.41898    
C390     C      0.532300000000     0.542460000000     0.239520000000    -0.0373694  
C391     C      0.523140000000     0.518980000000     0.295870000000     0.050597   
C392     C      0.523490000000     0.522640000000     0.145420000000     0.112226   
C393     C      0.856700000000     0.203670000000     0.981000000000    -0.218856   
C394     C      0.827210000000     0.184070000000     0.758540000000     0.077182   
C395     C      0.866690000000     0.189270000000     0.754580000000     0.0777791  
C396     C      0.828840000000     0.185230000000     0.794750000000    -0.091247   
C397     C      0.832320000000     0.168120000000     0.867890000000    -0.0379159  
C398     C      0.833450000000     0.166870000000     0.904010000000    -0.0221712  
C399     C      0.850960000000     0.187510000000     0.849520000000    -0.000918378
C400     C      0.869080000000     0.190960000000     0.790720000000    -0.0908275  
C401     C      0.853050000000     0.185170000000     0.922490000000    -0.0267275  
C402     C      0.849690000000     0.162960000000     0.977630000000    -0.126883   
C403     C      0.871650000000     0.204680000000     0.904180000000    -0.0221698  
C404     C      0.848270000000     0.161510000000     0.013830000000     0.098461   
C405     C      0.854730000000     0.201530000000     0.017170000000     0.415739   
C406     C      0.870750000000     0.205700000000     0.867910000000    -0.0378463  
C407     C      0.849790000000     0.188330000000     0.811180000000     0.0518832  
C408     C      0.853570000000     0.184070000000     0.960870000000     0.111155   
C409     C      0.818900000000     0.175750000000     0.295240000000    -0.219384   
C410     C      0.843430000000     0.156360000000     0.513670000000     0.0776271  
C411     C      0.803960000000     0.151200000000     0.517470000000     0.0781696  
C412     C      0.841650000000     0.154640000000     0.477510000000    -0.0913318  
C413     C      0.799800000000     0.133160000000     0.404440000000    -0.0375311  
C414     C      0.798810000000     0.133980000000     0.368140000000    -0.0217711  
C415     C      0.819390000000     0.151720000000     0.422670000000    -0.000769265
C416     C      0.801410000000     0.148940000000     0.481360000000    -0.0905304  
C417     C      0.817080000000     0.153670000000     0.349710000000    -0.0265546  
C418     C      0.814220000000     0.135980000000     0.290770000000    -0.126491   
C419     C      0.836540000000     0.172270000000     0.368020000000    -0.0219984  
C420     C      0.816120000000     0.138650000000     0.254660000000     0.0988779  
C421     C      0.820280000000     0.177740000000     0.259060000000     0.416601   
C422     C      0.837780000000     0.171210000000     0.404130000000    -0.0372804  
C423     C      0.820620000000     0.151260000000     0.461010000000     0.0523654  
C424     C      0.816260000000     0.154920000000     0.311410000000     0.112026   
C425     C      0.131240000000     0.324150000000     0.649550000000    -0.217482   
C426     C      0.149040000000     0.351940000000     0.420090000000     0.0766227  
C427     C      0.151480000000     0.316150000000     0.425600000000     0.0773679  
C428     C      0.146340000000     0.352680000000     0.456040000000    -0.0896818  
C429     C      0.157770000000     0.359280000000     0.532930000000    -0.0375369  
C430     C      0.158420000000     0.360720000000     0.569210000000    -0.0225943  
C431     C      0.146040000000     0.336660000000     0.516070000000     0.000104017
C432     C      0.149130000000     0.316510000000     0.461650000000    -0.0891839  
C433     C      0.147620000000     0.339580000000     0.589660000000    -0.0247084  
C434     C      0.171280000000     0.358580000000     0.644260000000    -0.124567   
C435     C      0.135420000000     0.316990000000     0.572790000000    -0.0216614  
C436     C      0.173810000000     0.358640000000     0.680320000000     0.0979395  
C437     C      0.134430000000     0.324470000000     0.685550000000     0.415575   
C438     C      0.134510000000     0.315560000000     0.536520000000    -0.0370584  
C439     C      0.146840000000     0.335100000000     0.477460000000     0.050982   
C440     C      0.149940000000     0.340970000000     0.628280000000     0.109567   
C441     C      0.191960000000     0.322970000000     0.149580000000    -0.216425   
C442     C      0.202900000000     0.352240000000     0.920280000000     0.0769059  
C443     C      0.164550000000     0.316700000000     0.925520000000     0.0760717  
C444     C      0.206340000000     0.352730000000     0.956220000000    -0.089425   
C445     C      0.201650000000     0.358970000000     0.033260000000    -0.036845   
C446     C      0.202320000000     0.360180000000     0.069550000000    -0.0217508  
C447     C      0.190580000000     0.336450000000     0.016120000000     0.000298323
C448     C      0.167270000000     0.316810000000     0.961540000000    -0.0902648  
C449     C      0.191690000000     0.338920000000     0.089730000000    -0.0240358  
C450     C      0.186960000000     0.357830000000     0.144350000000    -0.124117   
C451     C      0.181170000000     0.316420000000     0.072590000000    -0.0215123  
C452     C      0.184280000000     0.357750000000     0.180370000000     0.0991885  
C453     C      0.188880000000     0.323140000000     0.185540000000     0.417419   
C454     C      0.180770000000     0.315210000000     0.036300000000    -0.0368626  
C455     C      0.188220000000     0.335150000000     0.977500000000     0.0511445  
C456     C      0.190520000000     0.340100000000     0.128360000000     0.110472   
C457     C      0.061790000000     0.302420000000     0.254050000000    -0.218739   
C458     C      0.917210000000     0.192240000000     0.169710000000     0.0759047  
C459     C      0.917000000000     0.229340000000     0.170870000000     0.0780801  
C460     C      0.940860000000     0.203700000000     0.182660000000    -0.0891983  
C461     C      0.995150000000     0.235140000000     0.193840000000    -0.0487855  
C462     C      0.018470000000     0.246810000000     0.208050000000    -0.0114858  
C463     C      0.977660000000     0.240900000000     0.205250000000     0.00573199 
C464     C      0.940660000000     0.241370000000     0.183740000000    -0.0879615  
C465     C      0.024870000000     0.264560000000     0.233930000000    -0.0313726  
C466     C      0.062010000000     0.264820000000     0.256410000000    -0.126277   
C467     C      0.007370000000     0.270250000000     0.245460000000    -0.0110236  
C468     C      0.085690000000     0.277310000000     0.269170000000     0.0982743  
C469     C      0.085530000000     0.314460000000     0.266690000000     0.415891   
C470     C      0.984040000000     0.258530000000     0.231340000000    -0.0482951  
C471     C      0.952820000000     0.228530000000     0.190210000000     0.0484028  
C472     C      0.049820000000     0.277390000000     0.248440000000     0.112912   
C473     C      0.274330000000     0.371570000000     0.351530000000    -0.21691    
C474     C      0.418770000000     0.481020000000     0.436950000000     0.0759508  
C475     C      0.418910000000     0.443900000000     0.434640000000     0.0776772  
C476     C      0.395160000000     0.469750000000     0.423860000000    -0.0903102  
C477     C      0.340880000000     0.438500000000     0.412180000000    -0.0374939  
C478     C      0.317580000000     0.426920000000     0.397930000000    -0.0222492  
C479     C      0.358400000000     0.432850000000     0.400480000000    -1.59557e-05
C480     C      0.395300000000     0.432060000000     0.421640000000    -0.0895447  
C481     C      0.311220000000     0.409380000000     0.371740000000    -0.0251257  
C482     C      0.274050000000     0.409150000000     0.349520000000    -0.125779   
C483     C      0.328750000000     0.403840000000     0.359890000000    -0.0215266  
C484     C      0.250370000000     0.396670000000     0.336770000000     0.0977813  
C485     C      0.250580000000     0.359540000000     0.338940000000     0.417151   
C486     C      0.352060000000     0.415460000000     0.374020000000    -0.0366613  
C487     C      0.383200000000     0.445020000000     0.415660000000     0.0514383  
C488     C      0.286260000000     0.396580000000     0.357290000000     0.110792   
C489     C      0.506660000000     0.983830000000     0.629580000000    -0.21823    
C490     C      0.523500000000     0.029590000000     0.850520000000     0.0746876  
C491     C      0.514570000000     0.988770000000     0.852310000000     0.0742054  
C492     C      0.526690000000     0.030250000000     0.814530000000    -0.0908447  
C493     C      0.517090000000     0.023220000000     0.737730000000    -0.0376961  
C494     C      0.517310000000     0.022420000000     0.701460000000    -0.0224904  
C495     C      0.523940000000     0.009100000000     0.757840000000    -0.000789599
C496     C      0.516990000000     0.988600000000     0.816240000000    -0.0906204  
C497     C      0.523820000000     0.007080000000     0.684410000000    -0.0270359  
C498     C      0.536790000000     0.026050000000     0.625930000000    -0.128041   
C499     C      0.530640000000     0.992920000000     0.704080000000    -0.0227759  
C500     C      0.534170000000     0.024780000000     0.589840000000     0.0977893  
C501     C      0.503980000000     0.983240000000     0.593430000000     0.41717    
C502     C      0.531010000000     0.994140000000     0.740410000000    -0.0378022  
C503     C      0.522840000000     0.009410000000     0.796640000000     0.0498378  
C504     C      0.522750000000     0.005510000000     0.646110000000     0.111385   
C505     C      0.504560000000     0.026060000000     0.311870000000    -0.217259   
C506     C      0.484430000000     0.983540000000     0.093780000000     0.0747711  
C507     C      0.480690000000     0.018610000000     0.088640000000     0.0752215  
C508     C      0.481920000000     0.983610000000     0.129830000000    -0.0907798  
C509     C      0.467630000000     0.981930000000     0.204980000000    -0.0377465  
C510     C      0.468890000000     0.983350000000     0.241260000000    -0.0226426  
C511     C      0.478060000000     0.003080000000     0.184520000000    -0.00021118 
C512     C      0.477730000000     0.018990000000     0.124590000000    -0.0903995  
C513     C      0.480320000000     0.005970000000     0.258130000000    -0.0244317  
C514     C      0.465820000000     0.990030000000     0.318600000000    -0.12445    
C515     C      0.489820000000     0.027080000000     0.237700000000    -0.021653   
C516     C      0.469940000000     0.990870000000     0.354390000000     0.0981335  
C517     C      0.508020000000     0.026630000000     0.347800000000     0.415785   
C518     C      0.488880000000     0.025670000000     0.201440000000    -0.0367999  
C519     C      0.478850000000     0.001670000000     0.145860000000     0.050548   
C520     C      0.483410000000     0.007520000000     0.296680000000     0.109826   
C521     C      0.727870000000     0.098140000000     0.089990000000    -0.217161   
C522     C      0.583400000000     0.064240000000     0.005490000000     0.0746196  
C523     C      0.582630000000     0.026670000000     0.007630000000     0.0744211  
C524     C      0.607080000000     0.076250000000     0.018280000000    -0.0911224  
C525     C      0.661320000000     0.098500000000     0.028680000000    -0.0377256  
C526     C      0.684700000000     0.110160000000     0.042660000000    -0.0229342  
C527     C      0.643730000000     0.075550000000     0.040900000000    -0.000983875
C528     C      0.606320000000     0.038110000000     0.020430000000    -0.0912066  
C529     C      0.691070000000     0.099130000000     0.069140000000    -0.0249716  
C530     C      0.728530000000     0.136200000000     0.090250000000    -0.12433    
C531     C      0.673480000000     0.076220000000     0.081430000000    -0.0223687  
C532     C      0.752290000000     0.147420000000     0.102710000000     0.0987205  
C533     C      0.751680000000     0.109870000000     0.102330000000     0.415377   
C534     C      0.650090000000     0.064580000000     0.067510000000    -0.0371438  
C535     C      0.618790000000     0.063170000000     0.026220000000     0.0504197  
C536     C      0.716080000000     0.111310000000     0.083460000000     0.110042   
C537     C      0.201670000000     0.853160000000     0.460750000000    -0.21651    
C538     C      0.179570000000     0.869740000000     0.686420000000     0.0784513  
C539     C      0.189410000000     0.838490000000     0.682000000000     0.077166   
C540     C      0.181660000000     0.873120000000     0.650410000000    -0.0900726  
C541     C      0.167180000000     0.855700000000     0.573580000000    -0.0382022  
C542     C      0.166890000000     0.855680000000     0.537260000000    -0.0220033  
C543     C      0.188340000000     0.860880000000     0.591640000000    -0.000449673
C544     C      0.192270000000     0.841840000000     0.646060000000    -0.0908939  
C545     C      0.187950000000     0.861400000000     0.518120000000    -0.024471   
C546     C      0.171290000000     0.865020000000     0.460280000000    -0.124456   
C547     C      0.209350000000     0.867320000000     0.536560000000    -0.0213302  
C548     C      0.169220000000     0.861640000000     0.424320000000     0.0985981  
C549     C      0.199640000000     0.850550000000     0.424600000000     0.415863   
C550     C      0.209440000000     0.866740000000     0.572930000000    -0.0377358  
C551     C      0.187890000000     0.858950000000     0.629920000000     0.0519093  
C552     C      0.187210000000     0.860180000000     0.479270000000     0.109467   
C553     C      0.155270000000     0.802220000000     0.958540000000    -0.218278   
C554     C      0.140730000000     0.824890000000     0.185010000000     0.0765855  
C555     C      0.172060000000     0.815140000000     0.183440000000     0.0763108  
C556     C      0.138190000000     0.822560000000     0.148910000000    -0.0896076  
C557     C      0.129680000000     0.808720000000     0.073000000000    -0.0371533  
C558     C      0.128910000000     0.809140000000     0.036650000000    -0.0220049  
C559     C      0.151550000000     0.815280000000     0.090580000000     7.19794e-05
C560     C      0.169570000000     0.812030000000     0.147430000000    -0.0896584  
C561     C      0.149800000000     0.815520000000     0.017110000000    -0.0262512  
C562     C      0.144640000000     0.833450000000     0.962370000000    -0.125816   
C563     C      0.171470000000     0.821500000000     0.034310000000    -0.0217904  
C564     C      0.146860000000     0.836160000000     0.926280000000     0.0997371  
C565     C      0.156780000000     0.804900000000     0.922400000000     0.416903   
C566     C      0.172430000000     0.821660000000     0.070590000000    -0.0367915  
C567     C      0.152900000000     0.816330000000     0.129410000000     0.0508385  
C568     C      0.149410000000     0.816730000000     0.978810000000     0.112005   
C569     C      0.273390000000     0.911490000000     0.852040000000    -0.216693   
C570     C      0.418220000000     0.946090000000     0.937150000000     0.0746582  
C571     C      0.419170000000     0.983750000000     0.934560000000     0.0749781  
C572     C      0.394620000000     0.934170000000     0.924030000000    -0.0912932  
C573     C      0.351950000000     0.917690000000     0.874470000000    -0.037857   
C574     C      0.328670000000     0.906220000000     0.860150000000    -0.0225665  
C575     C      0.358260000000     0.935060000000     0.900880000000    -0.000765783
C576     C      0.395520000000     0.972370000000     0.921660000000    -0.0910273  
C577     C      0.311100000000     0.911730000000     0.872070000000    -0.0248685  
C578     C      0.274680000000     0.874460000000     0.849020000000    -0.124422   
C579     C      0.317480000000     0.929140000000     0.898510000000    -0.0219305  
C580     C      0.251000000000     0.862710000000     0.836290000000     0.0988833  
C581     C      0.249630000000     0.899200000000     0.839430000000     0.415617   
C582     C      0.340810000000     0.940730000000     0.912660000000    -0.0376012  
C583     C      0.383060000000     0.947330000000     0.915860000000     0.0506832  
C584     C      0.286140000000     0.899110000000     0.857390000000     0.109878   
C585     C      0.814470000000     0.645460000000     0.796230000000    -0.217729   
C586     C      0.836220000000     0.688090000000     0.014280000000     0.0753406  
C587     C      0.797550000000     0.652970000000     0.019460000000     0.0764974  
C588     C      0.833660000000     0.687890000000     0.978210000000    -0.0906005  
C589     C      0.820870000000     0.689350000000     0.903060000000    -0.0387075  
C590     C      0.820730000000     0.687880000000     0.866800000000    -0.0229237  
C591     C      0.810450000000     0.668230000000     0.923560000000    -0.000392697
C592     C      0.794240000000     0.652430000000     0.983480000000    -0.0900316  
C593     C      0.809860000000     0.665250000000     0.849980000000    -0.0256107  
C594     C      0.810840000000     0.681040000000     0.789580000000    -0.12614    
C595     C      0.798560000000     0.644140000000     0.870450000000    -0.0221124  
C596     C      0.814230000000     0.680380000000     0.753820000000     0.0958451  
C597     C      0.817480000000     0.645070000000     0.760300000000     0.414751   
C598     C      0.799000000000     0.645600000000     0.906720000000    -0.0376008  
C599     C      0.812620000000     0.669730000000     0.962210000000     0.0503631  
C600     C      0.811390000000     0.663730000000     0.811460000000     0.108885   
C601     C      0.856950000000     0.652470000000     0.483030000000    -0.217737   
C602     C      0.865260000000     0.680800000000     0.253900000000     0.0752918  
C603     C      0.826610000000     0.645720000000     0.259610000000     0.0760947  
C604     C      0.868910000000     0.681340000000     0.289790000000    -0.0908386  
C605     C      0.865060000000     0.688060000000     0.366820000000    -0.0381337  
C606     C      0.866310000000     0.689430000000     0.403080000000    -0.0231882  
C607     C      0.853430000000     0.665470000000     0.349870000000    -0.000664697
C608     C      0.829520000000     0.645910000000     0.295630000000    -0.0902881  
C609     C      0.855740000000     0.668250000000     0.423450000000    -0.0253455  
C610     C      0.852380000000     0.687610000000     0.478520000000    -0.125945   
C611     C      0.844580000000     0.645660000000     0.406490000000    -0.0222886  
C612     C      0.850340000000     0.687680000000     0.514640000000     0.0961962  
C613     C      0.854530000000     0.652810000000     0.519110000000     0.41502    
C614     C      0.843570000000     0.644300000000     0.370210000000    -0.0375485  
C615     C      0.850740000000     0.664050000000     0.311300000000     0.0504279  
C616     C      0.855340000000     0.669640000000     0.462120000000     0.109006   
C617     C      0.607380000000     0.536080000000     0.517650000000    -0.217416   
C618     C      0.752860000000     0.645220000000     0.600820000000     0.075192   
C619     C      0.751810000000     0.607510000000     0.603150000000     0.0770325  
C620     C      0.729150000000     0.633910000000     0.588180000000    -0.0910821  
C621     C      0.685140000000     0.607750000000     0.541590000000    -0.0381258  
C622     C      0.661730000000     0.596210000000     0.527730000000    -0.0231763  
C623     C      0.691530000000     0.596620000000     0.567950000000    -0.000662664
C624     C      0.728100000000     0.595630000000     0.590430000000    -0.0894119  
C625     C      0.644180000000     0.573220000000     0.539790000000    -0.025661   
C626     C      0.607120000000     0.573680000000     0.518640000000    -0.126362   
C627     C      0.650530000000     0.562100000000     0.566140000000    -0.0222722  
C628     C      0.583420000000     0.561570000000     0.505910000000     0.0963546  
C629     C      0.583710000000     0.524460000000     0.504770000000     0.416199   
C630     C      0.673910000000     0.573670000000     0.580090000000    -0.0372786  
C631     C      0.716510000000     0.608840000000     0.582490000000     0.0506669  
C632     C      0.619290000000     0.560880000000     0.525060000000     0.109843   
C633     C      0.059850000000     0.798340000000     0.760090000000    -0.218582   
C634     C      0.916390000000     0.688070000000     0.673300000000     0.0779975  
C635     C      0.916960000000     0.725570000000     0.671960000000     0.0757694  
C636     C      0.940020000000     0.699470000000     0.686320000000    -0.0880928  
C637     C      0.994760000000     0.731670000000     0.695880000000    -0.0487025  
C638     C      0.018100000000     0.743520000000     0.710040000000    -0.0113776  
C639     C      0.976960000000     0.736690000000     0.708130000000     0.00562348 
C640     C      0.940500000000     0.737490000000     0.685240000000    -0.0898729  
C641     C      0.024120000000     0.760560000000     0.736940000000    -0.0308382  
C642     C      0.062820000000     0.762280000000     0.755740000000    -0.125709   
C643     C      0.006130000000     0.765260000000     0.749500000000    -0.0109585  
C644     C      0.086580000000     0.775310000000     0.768130000000     0.0980544  
C645     C      0.083600000000     0.810880000000     0.772590000000     0.416043   
C646     C      0.982880000000     0.753540000000     0.735180000000    -0.0482322  
C647     C      0.952240000000     0.724410000000     0.692870000000     0.0486008  
C648     C      0.049180000000     0.773810000000     0.751260000000     0.11268    
Cu1      Cu     0.835150000000     0.686130000000     0.634960000000     0.84535    
Cu2      Cu     0.833950000000     0.646920000000     0.639210000000     0.884533   
Cu3      Cu     0.166110000000     0.855490000000     0.807420000000     0.882045   
Cu4      Cu     0.169340000000     0.818730000000     0.800680000000     0.865069   
Cu5      Cu     0.501490000000     0.024780000000     0.969270000000     0.85097    
Cu6      Cu     0.500160000000     0.985480000000     0.973340000000     0.849485   
Cu7      Cu     0.168550000000     0.356540000000     0.300480000000     0.863894   
Cu8      Cu     0.167540000000     0.317460000000     0.305360000000     0.882754   
Cu9      Cu     0.834520000000     0.189030000000     0.137430000000     0.883952   
Cu10     Cu     0.834880000000     0.150550000000     0.134820000000     0.863936   
Cu11     Cu     0.501020000000     0.522020000000     0.472300000000     0.846411   
Cu12     Cu     0.501150000000     0.483430000000     0.469040000000     0.886413   
Cu13     Cu     0.149880000000     0.318590000000     0.805380000000     0.865881   
Cu14     Cu     0.188160000000     0.357400000000     0.800610000000     0.86685    
Cu15     Cu     0.313960000000     0.149770000000     0.634930000000     0.849296   
Cu16     Cu     0.353070000000     0.187750000000     0.639760000000     0.868549   
Cu17     Cu     0.982500000000     0.484320000000     0.968670000000     0.837537   
Cu18     Cu     0.020640000000     0.523340000000     0.972120000000     0.908322   
Cu19     Cu     0.652940000000     0.823230000000     0.301290000000     0.861605   
Cu20     Cu     0.692900000000     0.860090000000     0.306750000000     0.884327   
Cu21     Cu     0.811950000000     0.647510000000     0.139190000000     0.866922   
Cu22     Cu     0.850430000000     0.686170000000     0.134560000000     0.849177   
Cu23     Cu     0.485750000000     0.986100000000     0.473520000000     0.881251   
Cu24     Cu     0.522780000000     0.026000000000     0.469030000000     0.865974   
Cu25     Cu     0.360340000000     0.172140000000     0.139440000000     0.884559   
Cu26     Cu     0.320820000000     0.170280000000     0.135830000000     0.847428   
Cu27     Cu     0.524500000000     0.503260000000     0.968240000000     0.845374   
Cu28     Cu     0.487000000000     0.505370000000     0.972670000000     0.901944   
Cu29     Cu     0.189080000000     0.836460000000     0.302440000000     0.865733   
Cu30     Cu     0.151980000000     0.839370000000     0.306060000000     0.864959   
Cu31     Cu     0.020530000000     0.504660000000     0.472800000000     0.857162   
Cu32     Cu     0.981640000000     0.504190000000     0.468710000000     0.841917   
Cu33     Cu     0.854930000000     0.170980000000     0.634480000000     0.866872   
Cu34     Cu     0.815930000000     0.170260000000     0.637480000000     0.865425   
Cu35     Cu     0.694120000000     0.838880000000     0.806350000000     0.866507   
Cu36     Cu     0.654360000000     0.836480000000     0.801890000000     0.847194   
F1       F      0.838640000000     0.098750000000     0.663070000000    -0.450484   
F2       F      0.832220000000     0.242510000000     0.608770000000    -0.450258   
F3       F      0.095310000000     0.767400000000     0.335370000000    -0.450026   
F4       F      0.506960000000     0.578340000000     0.943690000000    -0.442836   
F5       F      0.343920000000     0.099470000000     0.165740000000    -0.44667    
F6       F      0.431070000000     0.433120000000     0.000710000000    -0.444287   
F7       F      0.632660000000     0.797330000000     0.406390000000    -0.450948   
F8       F      0.719840000000     0.867820000000     0.909530000000    -0.451538   
F9       F      0.745080000000     0.838990000000     0.279070000000    -0.449581   
F10      F      0.677650000000     0.916990000000     0.334670000000    -0.448282   
F11      F      0.029440000000     0.555760000000     0.870100000000    -0.442521   
F12      F      0.041190000000     0.531780000000     0.080160000000    -0.443625   
F13      F      0.829160000000     0.592320000000     0.110150000000    -0.450617   
F14      F      0.378480000000     0.166550000000     0.033210000000    -0.447235   
F15      F      0.364390000000     0.221710000000     0.538230000000    -0.448896   
F16      F      0.428980000000     0.001070000000     0.502150000000    -0.445618   
F17      F      0.076760000000     0.507380000000     0.943230000000    -0.439831   
F18      F      0.242330000000     0.338760000000     0.772810000000    -0.449679   
F19      F      0.477760000000     0.450960000000     0.571300000000    -0.444464   
F20      F      0.488250000000     0.530990000000     0.077870000000    -0.440066   
F21      F      0.857610000000     0.221070000000     0.035420000000    -0.44952    
F22      F      0.823240000000     0.198620000000     0.244920000000    -0.448821   
F23      F      0.115620000000     0.307600000000     0.704680000000    -0.450422   
F24      F      0.190390000000     0.305970000000     0.204640000000    -0.443908   
F25      F      0.096160000000     0.338810000000     0.271300000000    -0.450331   
F26      F      0.239980000000     0.335200000000     0.334160000000    -0.443773   
F27      F      0.487810000000     0.961780000000     0.578670000000    -0.446483   
F28      F      0.529170000000     0.044880000000     0.360650000000    -0.449844   
F29      F      0.762130000000     0.096030000000     0.107860000000    -0.449457   
F30      F      0.213730000000     0.843070000000     0.408420000000    -0.449764   
F31      F      0.162970000000     0.790550000000     0.904100000000    -0.448375   
F32      F      0.238270000000     0.912270000000     0.834830000000    -0.448912   
F33      F      0.820880000000     0.627120000000     0.747390000000    -0.449391   
F34      F      0.856150000000     0.635580000000     0.537890000000    -0.449823   
F35      F      0.573190000000     0.500330000000     0.498210000000    -0.445246   
F36      F      0.092870000000     0.834720000000     0.780290000000    -0.449213   
H1       H      0.743260000000     0.912570000000     0.775780000000     0.0331336  
H2       H      0.766410000000     0.096570000000     0.666050000000     0.0244989  
H3       H      0.774240000000     0.994290000000     0.766920000000     0.0444969  
H4       H      0.734090000000     0.013800000000     0.671800000000     0.0384206  
H5       H      0.746000000000     0.055670000000     0.688450000000     0.0645345  
H6       H      0.713970000000     0.973140000000     0.696660000000     0.0419699  
H7       H      0.813520000000     0.055480000000     0.686630000000     0.118619   
H8       H      0.763190000000     0.953380000000     0.752970000000     0.0577345  
H9       H      0.694220000000     0.950740000000     0.748560000000     0.0553317  
H10      H      0.794420000000     0.034810000000     0.741730000000     0.0430061  
H11      H      0.674700000000     0.909600000000     0.770610000000     0.0283187  
H12      H      0.930290000000     0.430540000000     0.498170000000     0.0289876  
H13      H      0.904450000000     0.244700000000     0.606040000000     0.0247184  
H14      H      0.906200000000     0.367810000000     0.574640000000     0.0430905  
H15      H      0.927600000000     0.307450000000     0.531780000000     0.038064   
H16      H      0.924980000000     0.285740000000     0.584400000000     0.0643812  
H17      H      0.948010000000     0.348240000000     0.507480000000     0.0422484  
H18      H      0.857270000000     0.285640000000     0.584900000000     0.118498   
H19      H      0.909140000000     0.389310000000     0.519930000000     0.0569011  
H20      H      0.977070000000     0.389890000000     0.525190000000     0.0547998  
H21      H      0.885930000000     0.327080000000     0.599250000000     0.0423236  
H22      H      0.997670000000     0.430990000000     0.503060000000     0.0267901  
H23      H      0.004220000000     0.577810000000     0.439450000000     0.0303334  
H24      H      0.164270000000     0.763180000000     0.333180000000     0.0302528  
H25      H      0.053840000000     0.660710000000     0.434710000000     0.0444348  
H26      H      0.114590000000     0.681430000000     0.341080000000     0.0396869  
H27      H      0.143750000000     0.722410000000     0.355640000000     0.0673511  
H28      H      0.094550000000     0.640790000000     0.365860000000     0.0436057  
H29      H      0.076880000000     0.723940000000     0.358290000000     0.118883   
H30      H      0.024520000000     0.618900000000     0.417340000000     0.0579946  
H31      H      0.092570000000     0.619670000000     0.420760000000     0.0566556  
H32      H      0.074080000000     0.701490000000     0.410270000000     0.043693   
H33      H      0.071710000000     0.578420000000     0.442590000000     0.0287537  
H34      H      0.605190000000     0.762890000000     0.832400000000     0.0284257  
H35      H      0.577210000000     0.576540000000     0.940620000000     0.0238037  
H36      H      0.583760000000     0.702440000000     0.911640000000     0.0439125  
H37      H      0.604000000000     0.641290000000     0.868560000000     0.0373824  
H38      H      0.599550000000     0.617850000000     0.919950000000     0.0640884  
H39      H      0.624900000000     0.682150000000     0.844300000000     0.0417629  
H40      H      0.533700000000     0.621370000000     0.920810000000     0.120243   
H41      H      0.585150000000     0.722050000000     0.855320000000     0.0568487  
H42      H      0.654080000000     0.724790000000     0.861230000000     0.055994   
H43      H      0.563150000000     0.661800000000     0.936340000000     0.0439759  
H44      H      0.673690000000     0.765710000000     0.838000000000     0.0304683  
H45      H      0.242450000000     0.909270000000     0.271140000000     0.0320726  
H46      H      0.271570000000     0.097050000000     0.166880000000     0.0241173  
H47      H      0.278640000000     0.992700000000     0.264820000000     0.0444401  
H48      H      0.238340000000     0.014980000000     0.173230000000     0.0385963  
H49      H      0.251000000000     0.056100000000     0.188780000000     0.0645081  
H50      H      0.217380000000     0.974320000000     0.197900000000     0.0426406  
H51      H      0.318610000000     0.055990000000     0.188250000000     0.119295   
H52      H      0.264340000000     0.950200000000     0.248190000000     0.0578803  
H53      H      0.198860000000     0.954310000000     0.253350000000     0.0560148  
H54      H      0.299550000000     0.033520000000     0.240460000000     0.0429971  
H55      H      0.177440000000     0.913370000000     0.275900000000     0.0293851  
H56      H      0.341540000000     0.243570000000     0.105600000000     0.0298432  
H57      H      0.500450000000     0.429680000000     0.997690000000     0.0239731  
H58      H      0.380620000000     0.307190000000     0.032210000000     0.0443905  
H59      H      0.461630000000     0.368480000000     0.076010000000     0.0391096  
H60      H      0.480200000000     0.388730000000     0.020060000000     0.0654163  
H61      H      0.441430000000     0.327980000000     0.101300000000     0.0432983  
H62      H      0.413260000000     0.389970000000     0.024590000000     0.121074   
H63      H      0.361170000000     0.284750000000     0.083860000000     0.0578825  
H64      H      0.430000000000     0.287040000000     0.087730000000     0.0583719  
H65      H      0.400720000000     0.347850000000     0.007380000000     0.0438715  
H66      H      0.409940000000     0.246160000000     0.110360000000     0.0354448  
H67      H      0.634680000000     0.813720000000     0.694670000000     0.0281369  
H68      H      0.712210000000     0.854090000000     0.412400000000     0.0309539  
H69      H      0.645800000000     0.781000000000     0.584350000000     0.0437952  
H70      H      0.702090000000     0.858420000000     0.525780000000     0.0392902  
H71      H      0.713210000000     0.848960000000     0.474320000000     0.0662709  
H72      H      0.701340000000     0.856160000000     0.588920000000     0.0439491  
H73      H      0.637010000000     0.795760000000     0.472160000000     0.11771    
H74      H      0.635120000000     0.810040000000     0.631690000000     0.0576579  
H75      H      0.709170000000     0.826020000000     0.637020000000     0.0568339  
H76      H      0.647540000000     0.782410000000     0.520870000000     0.0413101  
H77      H      0.708090000000     0.828850000000     0.699960000000     0.0286592  
H78      H      0.708600000000     0.884480000000     0.200480000000     0.0379088  
H79      H      0.639950000000     0.844050000000     0.908990000000     0.0229124  
H80      H      0.703310000000     0.852470000000     0.089070000000     0.0462931  
H81      H      0.649010000000     0.871500000000     0.020220000000     0.0376153  
H82      H      0.639270000000     0.848060000000     0.971190000000     0.0635005  
H83      H      0.646770000000     0.870790000000     0.083650000000     0.0442222  
H84      H      0.715770000000     0.872280000000     0.974780000000     0.118397   
H85      H      0.710390000000     0.888880000000     0.137580000000     0.0615977  
H86      H      0.635980000000     0.831920000000     0.130670000000     0.057457   
H87      H      0.704580000000     0.851340000000     0.025960000000     0.0426764  
H88      H      0.634830000000     0.827320000000     0.193590000000     0.0296337  
H89      H      0.828950000000     0.737950000000     0.165610000000     0.0280649  
H90      H      0.672400000000     0.769830000000     0.271750000000     0.0265355  
H91      H      0.790460000000     0.760770000000     0.244170000000     0.0429309  
H92      H      0.710460000000     0.743640000000     0.199080000000     0.0380996  
H93      H      0.690980000000     0.747240000000     0.250420000000     0.064993   
H94      H      0.729930000000     0.722400000000     0.174330000000     0.0422904  
H95      H      0.760910000000     0.812100000000     0.255250000000     0.118694   
H96      H      0.809250000000     0.759280000000     0.188160000000     0.0563846  
H97      H      0.741480000000     0.691870000000     0.191590000000     0.0557233  
H98      H      0.770880000000     0.781690000000     0.269400000000     0.042143   
H99      H      0.761630000000     0.671030000000     0.168850000000     0.0289875  
H100     H      0.576370000000     0.006400000000     0.439570000000     0.0339064  
H101     H      0.604420000000     0.848300000000     0.330860000000     0.0297236  
H102     H      0.611900000000     0.958270000000     0.433210000000     0.0443742  
H103     H      0.572580000000     0.898190000000     0.338540000000     0.0389028  
H104     H      0.584160000000     0.868920000000     0.352950000000     0.0668912  
H105     H      0.551650000000     0.917790000000     0.363690000000     0.0437604  
H106     H      0.652620000000     0.935550000000     0.357070000000     0.119127   
H107     H      0.598280000000     0.987390000000     0.416540000000     0.058947   
H108     H      0.532520000000     0.918090000000     0.419730000000     0.0584668  
H109     H      0.632750000000     0.938390000000     0.408500000000     0.0434966  
H110     H      0.511080000000     0.937570000000     0.442510000000     0.0344877  
H111     H      0.036830000000     0.517240000000     0.581730000000     0.0285688  
H112     H      0.966450000000     0.479070000000     0.859820000000     0.0241009  
H113     H      0.003090000000     0.489110000000     0.688650000000     0.043009   
H114     H      0.996840000000     0.553480000000     0.752490000000     0.0428543  
H115     H      0.966400000000     0.482270000000     0.797110000000     0.0649892  
H116     H      0.999830000000     0.555210000000     0.688700000000     0.0443439  
H117     H      0.026150000000     0.555330000000     0.803410000000     0.121855   
H118     H      0.035870000000     0.519810000000     0.644550000000     0.0587355  
H119     H      0.972040000000     0.526600000000     0.636840000000     0.0581142  
H120     H      0.999730000000     0.487190000000     0.752020000000     0.0404628  
H121     H      0.973120000000     0.523540000000     0.573870000000     0.0287724  
H122     H      0.028900000000     0.484300000000     0.368940000000     0.0293083  
H123     H      0.975250000000     0.456690000000     0.072700000000     0.0246016  
H124     H      0.039400000000     0.502700000000     0.255890000000     0.045807   
H125     H      0.964080000000     0.464560000000     0.185690000000     0.0381597  
H126     H      0.974330000000     0.451040000000     0.134860000000     0.0661485  
H127     H      0.961260000000     0.462430000000     0.248690000000     0.0444147  
H128     H      0.036380000000     0.522670000000     0.145250000000     0.12113    
H129     H      0.029670000000     0.479290000000     0.306740000000     0.055204   
H130     H      0.966640000000     0.487520000000     0.296520000000     0.0540183  
H131     H      0.042230000000     0.503210000000     0.192950000000     0.0438414  
H132     H      0.965760000000     0.491340000000     0.358930000000     0.0290528  
H133     H      0.929610000000     0.504700000000     0.998490000000     0.0295344  
H134     H      0.900510000000     0.663020000000     0.104360000000     0.023642   
H135     H      0.904770000000     0.542920000000     0.074620000000     0.0439959  
H136     H      0.923400000000     0.623450000000     0.029710000000     0.0388387  
H137     H      0.921350000000     0.642920000000     0.082260000000     0.06487    
H138     H      0.944250000000     0.603560000000     0.005270000000     0.0446292  
H139     H      0.854470000000     0.574700000000     0.085640000000     0.118725   
H140     H      0.907620000000     0.524020000000     0.020020000000     0.0573839  
H141     H      0.974440000000     0.592390000000     0.023250000000     0.059474   
H142     H      0.884060000000     0.562910000000     0.099390000000     0.0426496  
H143     H      0.995870000000     0.572670000000     0.001420000000     0.0382887  
H144     H      0.372890000000     0.184540000000     0.746840000000     0.0296812  
H145     H      0.299070000000     0.144780000000     0.030740000000     0.0239695  
H146     H      0.362210000000     0.138540000000     0.855100000000     0.0451603  
H147     H      0.307530000000     0.160170000000     0.917500000000     0.0377348  
H148     H      0.296920000000     0.139010000000     0.968670000000     0.0646464  
H149     H      0.307510000000     0.159500000000     0.854260000000     0.043752   
H150     H      0.372930000000     0.161040000000     0.967530000000     0.119023   
H151     H      0.372820000000     0.179750000000     0.809660000000     0.058576   
H152     H      0.298890000000     0.121580000000     0.804490000000     0.0580828  
H153     H      0.361230000000     0.137370000000     0.918600000000     0.0428355  
H154     H      0.299600000000     0.126160000000     0.741650000000     0.0288224  
H155     H      0.312500000000     0.190390000000     0.240400000000     0.0297315  
H156     H      0.300610000000     0.145730000000     0.525370000000     0.0237256  
H157     H      0.338760000000     0.222270000000     0.354930000000     0.0457063  
H158     H      0.337050000000     0.153930000000     0.419610000000     0.0397363  
H159     H      0.302360000000     0.149290000000     0.462630000000     0.0659525  
H160     H      0.341490000000     0.155890000000     0.356340000000     0.0447559  
H161     H      0.362950000000     0.221710000000     0.471350000000     0.120741   
H162     H      0.311200000000     0.193620000000     0.303260000000     0.0583251  
H163     H      0.374570000000     0.186120000000     0.312020000000     0.059656   
H164     H      0.334740000000     0.220520000000     0.418590000000     0.0443306  
H165     H      0.375770000000     0.183420000000     0.249170000000     0.0343431  
H166     H      0.336440000000     0.098270000000     0.606300000000     0.0288785  
H167     H      0.497510000000     0.074460000000     0.499090000000     0.027412   
H168     H      0.386650000000     0.065290000000     0.601290000000     0.0440006  
H169     H      0.447090000000     0.105860000000     0.507430000000     0.0399294  
H170     H      0.476700000000     0.094480000000     0.521560000000     0.0659796  
H171     H      0.426590000000     0.126010000000     0.532270000000     0.044191   
H172     H      0.410280000000     0.025820000000     0.525000000000     0.120082   
H173     H      0.356850000000     0.077580000000     0.583950000000     0.0571281  
H174     H      0.424800000000     0.144810000000     0.587670000000     0.0576178  
H175     H      0.407380000000     0.045230000000     0.576850000000     0.0437243  
H176     H      0.403900000000     0.165040000000     0.609720000000     0.032547   
H177     H      0.166220000000     0.408950000000     0.830970000000     0.0307372  
H178     H      0.006960000000     0.435080000000     0.939600000000     0.0257763  
H179     H      0.117320000000     0.442440000000     0.840610000000     0.0445642  
H180     H      0.057340000000     0.402850000000     0.935280000000     0.0402636  
H181     H      0.027620000000     0.414740000000     0.917640000000     0.066241   
H182     H      0.077500000000     0.382290000000     0.910720000000     0.0435022  
H183     H      0.095130000000     0.482310000000     0.920130000000     0.122006   
H184     H      0.146520000000     0.430100000000     0.854010000000     0.0579994  
H185     H      0.079030000000     0.362360000000     0.858430000000     0.0576195  
H186     H      0.097310000000     0.463100000000     0.865500000000     0.0448499  
H187     H      0.099380000000     0.341670000000     0.836200000000     0.0333528  
H188     H      0.330820000000     0.239020000000     0.669980000000     0.0343216  
H189     H      0.171540000000     0.267320000000     0.773950000000     0.0278007  
H190     H      0.290460000000     0.261610000000     0.743620000000     0.0437972  
H191     H      0.210270000000     0.243130000000     0.697550000000     0.0401182  
H192     H      0.191020000000     0.245610000000     0.752330000000     0.0663234  
H193     H      0.230530000000     0.222660000000     0.672840000000     0.0435384  
H194     H      0.259200000000     0.312480000000     0.749640000000     0.119841   
H195     H      0.310510000000     0.259850000000     0.691780000000     0.0591886  
H196     H      0.242210000000     0.193010000000     0.686060000000     0.0560142  
H197     H      0.270320000000     0.282250000000     0.767930000000     0.0433819  
H198     H      0.263000000000     0.172840000000     0.663400000000     0.0288497  
H199     H      0.458020000000     0.485940000000     0.868060000000     0.0387396  
H200     H      0.490910000000     0.527540000000     0.581160000000     0.0238446  
H201     H      0.451390000000     0.453080000000     0.753760000000     0.0466278  
H202     H      0.518140000000     0.520330000000     0.688030000000     0.03999    
H203     H      0.488630000000     0.524780000000     0.643950000000     0.0663052  
H204     H      0.520630000000     0.519070000000     0.751370000000     0.0440227  
H205     H      0.475870000000     0.451840000000     0.638090000000     0.121992   
H206     H      0.453070000000     0.482460000000     0.805210000000     0.0613931  
H207     H      0.523360000000     0.488740000000     0.795870000000     0.0581459  
H208     H      0.449080000000     0.454120000000     0.690000000000     0.0446138  
H209     H      0.527690000000     0.491690000000     0.858630000000     0.0289961  
H210     H      0.510810000000     0.544150000000     0.364880000000     0.0289385  
H211     H      0.546480000000     0.509870000000     0.074740000000     0.0236259  
H212     H      0.538720000000     0.559220000000     0.253730000000     0.0428156  
H213     H      0.511100000000     0.483590000000     0.186180000000     0.0416283  
H214     H      0.550670000000     0.512310000000     0.137520000000     0.0665831  
H215     H      0.510120000000     0.481670000000     0.249400000000     0.0433618  
H216     H      0.495950000000     0.532920000000     0.143890000000     0.123065   
H217     H      0.514910000000     0.547980000000     0.302550000000     0.0564756  
H218     H      0.531050000000     0.489640000000     0.300650000000     0.0572401  
H219     H      0.537880000000     0.560450000000     0.190270000000     0.0433575  
H220     H      0.525110000000     0.485270000000     0.362840000000     0.0340906  
H221     H      0.881800000000     0.190720000000     0.739680000000     0.0325087  
H222     H      0.844800000000     0.144600000000     0.025640000000     0.0286091  
H223     H      0.885320000000     0.220830000000     0.854240000000     0.044037   
H224     H      0.818790000000     0.151760000000     0.917600000000     0.0406229  
H225     H      0.847470000000     0.147520000000     0.962810000000     0.0676169  
H226     H      0.817000000000     0.153770000000     0.854240000000     0.044137   
H227     H      0.859840000000     0.220330000000     0.968760000000     0.119422   
H228     H      0.885570000000     0.193390000000     0.802620000000     0.0585243  
H229     H      0.813660000000     0.183410000000     0.809830000000     0.0582019  
H230     H      0.886960000000     0.218990000000     0.917920000000     0.0423707  
H231     H      0.810490000000     0.181230000000     0.746890000000     0.0316385  
H232     H      0.788920000000     0.149970000000     0.532290000000     0.0327257  
H233     H      0.815120000000     0.123760000000     0.239700000000     0.0291961  
H234     H      0.852960000000     0.185820000000     0.417670000000     0.0447191  
H235     H      0.783630000000     0.119460000000     0.354490000000     0.0418952  
H236     H      0.812130000000     0.119560000000     0.302500000000     0.0684624  
H237     H      0.785440000000     0.117950000000     0.418260000000     0.045062   
H238     H      0.820210000000     0.190620000000     0.310590000000     0.120859   
H239     H      0.784880000000     0.146340000000     0.469380000000     0.0597487  
H240     H      0.856780000000     0.156280000000     0.462490000000     0.0581525  
H241     H      0.850930000000     0.187530000000     0.354310000000     0.0434897  
H242     H      0.860210000000     0.159390000000     0.525360000000     0.0318054  
H243     H      0.153680000000     0.301680000000     0.414680000000     0.034575   
H244     H      0.190900000000     0.372340000000     0.691280000000     0.028778   
H245     H      0.124950000000     0.297830000000     0.524540000000     0.0442593  
H246     H      0.167620000000     0.378460000000     0.581190000000     0.0385062  
H247     H      0.186400000000     0.371830000000     0.629030000000     0.0664284  
H248     H      0.167090000000     0.375950000000     0.518180000000     0.0426611  
H249     H      0.114140000000     0.310650000000     0.638480000000     0.118736   
H250     H      0.149930000000     0.302670000000     0.477010000000     0.0584433  
H251     H      0.144040000000     0.367080000000     0.466910000000     0.0569764  
H252     H      0.127090000000     0.300270000000     0.587530000000     0.043465   
H253     H      0.148950000000     0.366140000000     0.404630000000     0.0328503  
H254     H      0.147830000000     0.302410000000     0.914490000000     0.0299877  
H255     H      0.181070000000     0.371580000000     0.191320000000     0.0294404  
H256     H      0.172480000000     0.297550000000     0.024110000000     0.0439788  
H257     H      0.210980000000     0.377860000000     0.081750000000     0.0405178  
H258     H      0.185410000000     0.371310000000     0.129150000000     0.067264   
H259     H      0.209190000000     0.375750000000     0.018720000000     0.0442212  
H260     H      0.195380000000     0.309330000000     0.138500000000     0.120234   
H261     H      0.152580000000     0.302990000000     0.976780000000     0.0566885  
H262     H      0.223090000000     0.366940000000     0.967200000000     0.059289   
H263     H      0.172560000000     0.299610000000     0.087110000000     0.0435289  
H264     H      0.217220000000     0.366430000000     0.904930000000     0.0343524  
H265     H      0.908250000000     0.240000000000     0.166580000000     0.0378784  
H266     H      0.094390000000     0.266760000000     0.274740000000     0.0288521  
H267     H      0.970900000000     0.263090000000     0.241230000000     0.0463562  
H268     H      0.031650000000     0.242270000000     0.198250000000     0.038292   
H269     H      0.053290000000     0.245380000000     0.252950000000     0.0674875  
H270     H      0.990970000000     0.221900000000     0.173470000000     0.0446192  
H271     H      0.053040000000     0.312840000000     0.248000000000     0.119876   
H272     H      0.949350000000     0.260680000000     0.188520000000     0.0585502  
H273     H      0.949460000000     0.192990000000     0.187500000000     0.0557117  
H274     H      0.011610000000     0.283570000000     0.265730000000     0.0416262  
H275     H      0.908550000000     0.172930000000     0.164760000000     0.0302026  
H276     H      0.427610000000     0.433150000000     0.438530000000     0.0354111  
H277     H      0.241630000000     0.407210000000     0.331350000000     0.0255492  
H278     H      0.365220000000     0.411010000000     0.363890000000     0.0448993  
H279     H      0.304370000000     0.431350000000     0.407950000000     0.0389725  
H280     H      0.282750000000     0.428580000000     0.353120000000     0.0659477  
H281     H      0.345030000000     0.451550000000     0.432820000000     0.0432807  
H282     H      0.283120000000     0.361160000000     0.357430000000     0.12075    
H283     H      0.386600000000     0.412810000000     0.416380000000     0.0595792  
H284     H      0.386590000000     0.480540000000     0.419420000000     0.0563342  
H285     H      0.324530000000     0.390680000000     0.339380000000     0.0450312  
H286     H      0.427450000000     0.500250000000     0.442420000000     0.0290587  
H287     H      0.509570000000     0.972110000000     0.866210000000     0.0279443  
H288     H      0.545180000000     0.041300000000     0.575290000000     0.0247517  
H289     H      0.536890000000     0.983350000000     0.754730000000     0.0417095  
H290     H      0.511730000000     0.033300000000     0.686680000000     0.040873   
H291     H      0.549520000000     0.043090000000     0.638020000000     0.0663753  
H292     H      0.510930000000     0.034520000000     0.749850000000     0.0421261  
H293     H      0.495610000000     0.967590000000     0.644660000000     0.120916   
H294     H      0.513470000000     0.971890000000     0.803880000000     0.0553856  
H295     H      0.532000000000     0.047050000000     0.800920000000     0.0549345  
H296     H      0.535860000000     0.981050000000     0.691300000000     0.0421948  
H297     H      0.526220000000     0.046000000000     0.863090000000     0.0279106  
H298     H      0.480130000000     0.032630000000     0.073320000000     0.0295828  
H299     H      0.455890000000     0.976720000000     0.370160000000     0.029967   
H300     H      0.497350000000     0.042400000000     0.186740000000     0.0441118  
H301     H      0.461540000000     0.966650000000     0.255950000000     0.0385328  
H302     H      0.448930000000     0.975630000000     0.308270000000     0.0667839  
H303     H      0.458720000000     0.964180000000     0.193020000000     0.0421534  
H304     H      0.518880000000     0.039800000000     0.296030000000     0.11913    
H305     H      0.474780000000     0.032960000000     0.135560000000     0.0574741  
H306     H      0.483250000000     0.970000000000     0.145010000000     0.0555772  
H307     H      0.498320000000     0.044830000000     0.249670000000     0.0435054  
H308     H      0.487260000000     0.969500000000     0.082710000000     0.0281504  
H309     H      0.573640000000     0.007230000000     0.003800000000     0.0280044  
H310     H      0.761200000000     0.166780000000     0.107330000000     0.0311535  
H311     H      0.636880000000     0.047120000000     0.077980000000     0.0434869  
H312     H      0.697930000000     0.127630000000     0.032250000000     0.0396557  
H313     H      0.719950000000     0.147020000000     0.086070000000     0.06749    
H314     H      0.657150000000     0.107320000000     0.007890000000     0.0424745  
H315     H      0.718930000000     0.078860000000     0.084860000000     0.118899   
H316     H      0.614810000000     0.027330000000     0.025610000000     0.0560559  
H317     H      0.615910000000     0.095610000000     0.022640000000     0.056263   
H318     H      0.677700000000     0.067390000000     0.102140000000     0.0437072  
H319     H      0.574970000000     0.075080000000     0.000150000000     0.0287518  
H320     H      0.192420000000     0.824640000000     0.693450000000     0.030838   
H321     H      0.156320000000     0.865220000000     0.410990000000     0.0264061  
H322     H      0.225990000000     0.870900000000     0.586470000000     0.0466958  
H323     H      0.149880000000     0.850450000000     0.524360000000     0.0395558  
H324     H      0.160250000000     0.871250000000     0.473000000000     0.0655767  
H325     H      0.150630000000     0.850850000000     0.587590000000     0.0458507  
H326     H      0.214000000000     0.848840000000     0.474080000000     0.119314   
H327     H      0.197060000000     0.830540000000     0.630840000000     0.059538   
H328     H      0.178210000000     0.886570000000     0.638620000000     0.0602766  
H329     H      0.226090000000     0.872350000000     0.523010000000     0.043415   
H330     H      0.174420000000     0.880890000000     0.701360000000     0.0371926  
H331     H      0.185510000000     0.812070000000     0.196110000000     0.0301683  
H332     H      0.143580000000     0.849780000000     0.914660000000     0.0312644  
H333     H      0.189770000000     0.827420000000     0.082820000000     0.0432736  
H334     H      0.111960000000     0.804350000000     0.023760000000     0.0418226  
H335     H      0.140060000000     0.844980000000     0.977430000000     0.0688513  
H336     H      0.113070000000     0.803190000000     0.087200000000     0.0436052  
H337     H      0.158970000000     0.789030000000     0.970670000000     0.121977   
H338     H      0.180850000000     0.806410000000     0.133920000000     0.0572714  
H339     H      0.125260000000     0.826440000000     0.136460000000     0.0563445  
H340     H      0.187870000000     0.826730000000     0.019630000000     0.044652   
H341     H      0.129270000000     0.830180000000     0.198830000000     0.0314602  
H342     H      0.428260000000     0.003220000000     0.938150000000     0.029302   
H343     H      0.242870000000     0.843530000000     0.830690000000     0.0305023  
H344     H      0.345060000000     0.953830000000     0.933260000000     0.044198   
H345     H      0.324560000000     0.893230000000     0.839440000000     0.0394532  
H346     H      0.283680000000     0.864040000000     0.853040000000     0.0672317  
H347     H      0.365130000000     0.913220000000     0.864460000000     0.0432503  
H348     H      0.281750000000     0.930700000000     0.857430000000     0.118656   
H349     H      0.387270000000     0.983240000000     0.915490000000     0.0572586  
H350     H      0.385480000000     0.914710000000     0.920410000000     0.0563402  
H351     H      0.304310000000     0.933540000000     0.908760000000     0.0433629  
H352     H      0.426520000000     0.935190000000     0.942870000000     0.0282902  
H353     H      0.783040000000     0.638970000000     0.034810000000     0.0318128  
H354     H      0.813990000000     0.694410000000     0.738110000000     0.0229248  
H355     H      0.790970000000     0.628900000000     0.921480000000     0.0444688  
H356     H      0.829830000000     0.704580000000     0.852070000000     0.0371904  
H357     H      0.807930000000     0.695190000000     0.799940000000     0.0634845  
H358     H      0.829460000000     0.707100000000     0.914980000000     0.0414293  
H359     H      0.815360000000     0.631860000000     0.812050000000     0.119043   
H360     H      0.777410000000     0.638370000000     0.972480000000     0.0566091  
H361     H      0.848540000000     0.701490000000     0.963000000000     0.0554943  
H362     H      0.789600000000     0.626380000000     0.858510000000     0.0424125  
H363     H      0.853030000000     0.702220000000     0.025340000000     0.0282214  
H364     H      0.809700000000     0.631620000000     0.248770000000     0.0316515  
H365     H      0.847510000000     0.701680000000     0.525930000000     0.0231234  
H366     H      0.834840000000     0.626580000000     0.358160000000     0.0439712  
H367     H      0.875420000000     0.707150000000     0.415130000000     0.0375987  
H368     H      0.850770000000     0.701170000000     0.463580000000     0.0636789  
H369     H      0.872650000000     0.704790000000     0.352150000000     0.0415551  
H370     H      0.859960000000     0.638660000000     0.471590000000     0.118453   
H371     H      0.814810000000     0.632310000000     0.311080000000     0.0568155  
H372     H      0.885860000000     0.695380000000     0.300520000000     0.0559396  
H373     H      0.835970000000     0.628930000000     0.421190000000     0.0430238  
H374     H      0.879670000000     0.694770000000     0.238380000000     0.0284495  
H375     H      0.760150000000     0.596600000000     0.608500000000     0.0358037  
H376     H      0.574650000000     0.572230000000     0.501860000000     0.0235959  
H377     H      0.678070000000     0.564740000000     0.600740000000     0.0446084  
H378     H      0.657490000000     0.605110000000     0.507150000000     0.0382609  
H379     H      0.615620000000     0.592880000000     0.524190000000     0.0642076  
H380     H      0.698360000000     0.625230000000     0.531200000000     0.0419931  
H381     H      0.616370000000     0.525630000000     0.521650000000     0.120598   
H382     H      0.719140000000     0.576260000000     0.586130000000     0.0592448  
H383     H      0.720780000000     0.644800000000     0.583040000000     0.0549134  
H384     H      0.637300000000     0.544560000000     0.576380000000     0.0442992  
H385     H      0.761960000000     0.664670000000     0.604580000000     0.0278763  
H386     H      0.908510000000     0.736400000000     0.666690000000     0.0286134  
H387     H      0.096430000000     0.765590000000     0.770900000000     0.0284858  
H388     H      0.969410000000     0.757470000000     0.745580000000     0.0455501  
H389     H      0.031570000000     0.739710000000     0.699330000000     0.037535   
H390     H      0.055200000000     0.743220000000     0.749850000000     0.0676578  
H391     H      0.990790000000     0.718930000000     0.674840000000     0.0455629  
H392     H      0.050110000000     0.808100000000     0.756640000000     0.119628   
H393     H      0.949470000000     0.756880000000     0.689440000000     0.0559668  
H394     H      0.948430000000     0.688670000000     0.692020000000     0.0584835  
H395     H      0.009940000000     0.777890000000     0.770630000000     0.0416138  
H396     H      0.907470000000     0.668660000000     0.669140000000     0.0376245  
N1       N      0.801720000000     0.099960000000     0.663910000000    -0.24219    
N2       N      0.707460000000     0.907930000000     0.774620000000    -0.192109   
N3       N      0.869140000000     0.241300000000     0.608060000000    -0.241952   
N4       N      0.965580000000     0.433940000000     0.499240000000    -0.192201   
N5       N      0.132880000000     0.767530000000     0.333440000000    -0.241099   
N6       N      0.036390000000     0.574940000000     0.442370000000    -0.192676   
N7       N      0.542760000000     0.575050000000     0.942890000000    -0.241373   
N8       N      0.640970000000     0.767470000000     0.833810000000    -0.192653   
N9       N      0.306930000000     0.100560000000     0.165630000000    -0.241741   
N10      N      0.208260000000     0.908150000000     0.274900000000    -0.192341   
N11      N      0.468860000000     0.433680000000     0.998470000000    -0.241836   
N12      N      0.374210000000     0.241700000000     0.109340000000    -0.191908   
N13      N      0.674520000000     0.827760000000     0.406330000000    -0.241223   
N14      N      0.671450000000     0.821920000000     0.701930000000    -0.193093   
N15      N      0.677560000000     0.854330000000     0.906150000000    -0.243001   
N16      N      0.671720000000     0.855300000000     0.201650000000    -0.191454   
N17      N      0.705680000000     0.803780000000     0.276020000000    -0.241885   
N18      N      0.796840000000     0.702870000000     0.165860000000    -0.193151   
N19      N      0.640170000000     0.879550000000     0.331970000000    -0.24113    
N20      N      0.542040000000     0.973470000000     0.442390000000    -0.191175   
N21      N      0.996690000000     0.514890000000     0.867920000000    -0.243227   
N22      N      0.004770000000     0.519710000000     0.573160000000    -0.191822   
N23      N      0.006170000000     0.492640000000     0.072920000000    -0.240356   
N24      N      0.997510000000     0.488570000000     0.368540000000    -0.194107   
N25      N      0.865590000000     0.630760000000     0.107870000000    -0.24227    
N26      N      0.964400000000     0.537180000000     0.998600000000    -0.190495   
N27      N      0.336770000000     0.155670000000     0.035150000000    -0.242103   
N28      N      0.336170000000     0.155930000000     0.739650000000    -0.193127   
N29      N      0.331140000000     0.181180000000     0.534720000000    -0.242482   
N30      N      0.343970000000     0.186240000000     0.240140000000    -0.192422   
N31      N      0.466360000000     0.038640000000     0.499860000000    -0.241379   
N32      N      0.368580000000     0.133240000000     0.609340000000    -0.192557   
N33      N      0.038760000000     0.470410000000     0.942100000000    -0.240938   
N34      N      0.134360000000     0.373700000000     0.832210000000    -0.19205    
N35      N      0.203860000000     0.302300000000     0.774150000000    -0.241782   
N36      N      0.298490000000     0.204330000000     0.665370000000    -0.192213   
N37      N      0.485580000000     0.491760000000     0.573240000000    -0.241947   
N38      N      0.493380000000     0.489480000000     0.867970000000    -0.191667   
N39      N      0.518270000000     0.519080000000     0.073020000000    -0.241713   
N40      N      0.517220000000     0.514150000000     0.368430000000    -0.1924     
N41      N      0.849960000000     0.180310000000     0.033490000000    -0.242231   
N42      N      0.845710000000     0.185340000000     0.738640000000    -0.192003   
N43      N      0.819690000000     0.159570000000     0.238860000000    -0.241953   
N44      N      0.825010000000     0.155380000000     0.533440000000    -0.191974   
N45      N      0.155840000000     0.341350000000     0.700850000000    -0.241901   
N46      N      0.152030000000     0.334050000000     0.405030000000    -0.191603   
N47      N      0.184580000000     0.340200000000     0.200850000000    -0.241053   
N48      N      0.181970000000     0.334590000000     0.905090000000    -0.192171   
N49      N      0.097580000000     0.302010000000     0.273880000000    -0.241792   
N50      N      0.905220000000     0.204880000000     0.164330000000    -0.190991   
N51      N      0.238500000000     0.371990000000     0.331920000000    -0.241372   
N52      N      0.430710000000     0.468270000000     0.441820000000    -0.191945   
N53      N      0.517350000000     0.003780000000     0.573690000000    -0.24204    
N54      N      0.517140000000     0.008910000000     0.869220000000    -0.193225   
N55      N      0.491000000000     0.008790000000     0.368970000000    -0.241456   
N56      N      0.484450000000     0.001270000000     0.073400000000    -0.193072   
N57      N      0.764000000000     0.134500000000     0.108290000000    -0.240853   
N58      N      0.571140000000     0.039590000000     0.000580000000    -0.192973   
N59      N      0.182990000000     0.854110000000     0.406550000000    -0.241954   
N60      N      0.182780000000     0.852110000000     0.701990000000    -0.191397   
N61      N      0.153290000000     0.822310000000     0.906380000000    -0.241015   
N62      N      0.157990000000     0.821860000000     0.202050000000    -0.192177   
N63      N      0.238330000000     0.874800000000     0.831990000000    -0.241155   
N64      N      0.430550000000     0.970760000000     0.941910000000    -0.19297    
N65      N      0.817930000000     0.662790000000     0.739210000000    -0.24251    
N66      N      0.818570000000     0.670410000000     0.034700000000    -0.192464   
N67      N      0.850690000000     0.670040000000     0.534830000000    -0.242592   
N68      N      0.844100000000     0.663360000000     0.238970000000    -0.192545   
N69      N      0.571590000000     0.537080000000     0.499390000000    -0.241853   
N70      N      0.764220000000     0.632170000000     0.607920000000    -0.191879   
N71      N      0.097090000000     0.799520000000     0.776190000000    -0.241653   
N72      N      0.904830000000     0.700970000000     0.666530000000    -0.191063   
O1       O      0.870580000000     0.701570000000     0.648890000000    -0.395242   
O2       O      0.799650000000     0.666950000000     0.621590000000    -0.396909   
O3       O      0.825840000000     0.681890000000     0.686030000000    -0.401812   
O4       O      0.844140000000     0.686420000000     0.584190000000    -0.401655   
O5       O      0.843190000000     0.651100000000     0.588150000000    -0.357471   
O6       O      0.824960000000     0.646600000000     0.689940000000    -0.356404   
O7       O      0.798470000000     0.631470000000     0.625360000000    -0.388723   
O8       O      0.869500000000     0.666130000000     0.652540000000    -0.385225   
O9       O      0.130740000000     0.834670000000     0.794360000000    -0.356627   
O10      O      0.201920000000     0.872860000000     0.819780000000    -0.355446   
O11      O      0.174450000000     0.861640000000     0.756050000000    -0.38601    
O12      O      0.157840000000     0.845630000000     0.858080000000    -0.392327   
O13      O      0.160910000000     0.812530000000     0.851940000000    -0.354918   
O14      O      0.177810000000     0.828640000000     0.750160000000    -0.395452   
O15      O      0.204720000000     0.839590000000     0.813980000000    -0.394992   
O16      O      0.133500000000     0.801410000000     0.788090000000    -0.396304   
O17      O      0.466030000000     0.005590000000     0.955380000000    -0.395818   
O18      O      0.536790000000     0.040170000000     0.983610000000    -0.396376   
O19      O      0.511080000000     0.025460000000     0.918700000000    -0.39584    
O20      O      0.491820000000     0.020280000000     0.020250000000    -0.395301   
O21      O      0.491540000000     0.985240000000     0.024210000000    -0.396791   
O22      O      0.508830000000     0.989460000000     0.922070000000    -0.396951   
O23      O      0.535840000000     0.004760000000     0.986240000000    -0.39597    
O24      O      0.464650000000     0.970050000000     0.959970000000    -0.396167   
O25      O      0.204040000000     0.372230000000     0.314260000000    -0.400352   
O26      O      0.133010000000     0.337070000000     0.287290000000    -0.356021   
O27      O      0.159390000000     0.352680000000     0.351590000000    -0.391747   
O28      O      0.177490000000     0.356560000000     0.249770000000    -0.396096   
O29      O      0.176790000000     0.321380000000     0.254300000000    -0.351737   
O30      O      0.158600000000     0.317420000000     0.356050000000    -0.392426   
O31      O      0.132050000000     0.301770000000     0.291530000000    -0.397785   
O32      O      0.203070000000     0.336920000000     0.318580000000    -0.350668   
O33      O      0.798870000000     0.169350000000     0.124270000000    -0.39347    
O34      O      0.870130000000     0.204920000000     0.150250000000    -0.38548    
O35      O      0.843370000000     0.193020000000     0.086290000000    -0.358274   
O36      O      0.825930000000     0.181470000000     0.188410000000    -0.356799   
O37      O      0.826170000000     0.146690000000     0.186120000000    -0.396289   
O38      O      0.843360000000     0.158110000000     0.083690000000    -0.397189   
O39      O      0.870520000000     0.170170000000     0.147830000000    -0.395256   
O40      O      0.799270000000     0.134640000000     0.122210000000    -0.355422   
O41      O      0.536720000000     0.537580000000     0.484890000000    -0.400467   
O42      O      0.465360000000     0.502680000000     0.459330000000    -0.3949     
O43      O      0.492570000000     0.514240000000     0.523310000000    -0.401807   
O44      O      0.509460000000     0.526070000000     0.420990000000    -0.396694   
O45      O      0.510640000000     0.491720000000     0.418300000000    -0.391931   
O46      O      0.491740000000     0.478960000000     0.520120000000    -0.351555   
O47      O      0.465720000000     0.467960000000     0.455440000000    -0.391397   
O48      O      0.536540000000     0.502590000000     0.483000000000    -0.353      
O49      O      0.134180000000     0.338430000000     0.818680000000    -0.390799   
O50      O      0.169340000000     0.302510000000     0.791510000000    -0.397289   
O51      O      0.158720000000     0.318330000000     0.856050000000    -0.396638   
O52      O      0.144620000000     0.322680000000     0.754350000000    -0.356654   
O53      O      0.179310000000     0.357560000000     0.749830000000    -0.396584   
O54      O      0.193340000000     0.353380000000     0.851770000000    -0.390856   
O55      O      0.203870000000     0.337570000000     0.787540000000    -0.355968   
O56      O      0.168750000000     0.373530000000     0.814300000000    -0.39538    
O57      O      0.298180000000     0.169700000000     0.647500000000    -0.395234   
O58      O      0.333530000000     0.133510000000     0.622920000000    -0.395983   
O59      O      0.317350000000     0.144970000000     0.686370000000    -0.39697    
O60      O      0.314380000000     0.158250000000     0.583950000000    -0.401578   
O61      O      0.349170000000     0.193030000000     0.588590000000    -0.355881   
O62      O      0.353200000000     0.178730000000     0.690450000000    -0.396394   
O63      O      0.368780000000     0.168000000000     0.626100000000    -0.39355    
O64      O      0.333560000000     0.203850000000     0.652870000000    -0.390524   
O65      O      0.003100000000     0.469390000000     0.955860000000    -0.39715    
O66      O      0.965550000000     0.503050000000     0.981920000000    -0.393097   
O67      O      0.981530000000     0.492210000000     0.917740000000    -0.400541   
O68      O      0.987240000000     0.480150000000     0.019850000000    -0.40581    
O69      O      0.021630000000     0.515400000000     0.023060000000    -0.353088   
O70      O      0.015830000000     0.527570000000     0.920930000000    -0.348008   
O71      O      0.000080000000     0.538280000000     0.985010000000    -0.380791   
O72      O      0.037560000000     0.504600000000     0.958770000000    -0.348268   
O73      O      0.638510000000     0.844210000000     0.314420000000    -0.395517   
O74      O      0.671350000000     0.805790000000     0.288710000000    -0.39809    
O75      O      0.655890000000     0.817650000000     0.352660000000    -0.355753   
O76      O      0.653710000000     0.832510000000     0.250530000000    -0.395531   
O77      O      0.689940000000     0.865690000000     0.255420000000    -0.386818   
O78      O      0.692150000000     0.850730000000     0.357440000000    -0.393152   
O79      O      0.707340000000     0.839160000000     0.293570000000    -0.357133   
O80      O      0.674540000000     0.877540000000     0.319380000000    -0.355502   
O81      O      0.796420000000     0.667520000000     0.152230000000    -0.397812   
O82      O      0.831210000000     0.631200000000     0.125570000000    -0.355506   
O83      O      0.820660000000     0.647220000000     0.190000000000    -0.391983   
O84      O      0.806930000000     0.651650000000     0.088010000000    -0.391374   
O85      O      0.841740000000     0.686530000000     0.083840000000    -0.396785   
O86      O      0.855530000000     0.682020000000     0.185630000000    -0.396821   
O87      O      0.865890000000     0.666110000000     0.121390000000    -0.401951   
O88      O      0.831180000000     0.702470000000     0.148310000000    -0.396814   
O89      O      0.506610000000     0.971680000000     0.459550000000    -0.390858   
O90      O      0.468420000000     0.004370000000     0.486960000000    -0.352871   
O91      O      0.480210000000     0.989970000000     0.422410000000    -0.395847   
O92      O      0.494940000000     0.986130000000     0.524220000000    -0.352443   
O93      O      0.527840000000     0.022590000000     0.520330000000    -0.402592   
O94      O      0.514100000000     0.025600000000     0.418150000000    -0.355715   
O95      O      0.501720000000     0.040420000000     0.482050000000    -0.397927   
O96      O      0.540260000000     0.007680000000     0.456500000000    -0.389703   
O97      O      0.341490000000     0.136320000000     0.151580000000    -0.35311    
O98      O      0.375360000000     0.207730000000     0.126850000000    -0.390468   
O99      O      0.360400000000     0.180150000000     0.190560000000    -0.392896   
O100     O      0.356450000000     0.163970000000     0.087970000000    -0.351755   
O101     O      0.320220000000     0.161120000000     0.085110000000    -0.400656   
O102     O      0.325200000000     0.179540000000     0.186920000000    -0.395894   
O103     O      0.339610000000     0.205880000000     0.122440000000    -0.39518    
O104     O      0.305900000000     0.134890000000     0.149620000000    -0.401164   
O105     O      0.503900000000     0.467650000000     0.980780000000    -0.40124    
O106     O      0.541460000000     0.539130000000     0.956250000000    -0.400392   
O107     O      0.529210000000     0.511320000000     0.019660000000    -0.401847   
O108     O      0.516150000000     0.495360000000     0.917230000000    -0.396453   
O109     O      0.481780000000     0.496340000000     0.921460000000    -0.386476   
O110     O      0.495900000000     0.514230000000     0.023460000000    -0.348626   
O111     O      0.507440000000     0.540780000000     0.959170000000    -0.350634   
O112     O      0.470190000000     0.469720000000     0.985680000000    -0.353441   
O113     O      0.206460000000     0.872130000000     0.289060000000    -0.39281    
O114     O      0.168220000000     0.801200000000     0.316150000000    -0.395073   
O115     O      0.180390000000     0.827430000000     0.251670000000    -0.395635   
O116     O      0.193990000000     0.845450000000     0.353680000000    -0.355299   
O117     O      0.160680000000     0.848410000000     0.356790000000    -0.397042   
O118     O      0.147040000000     0.830390000000     0.254870000000    -0.391904   
O119     O      0.134650000000     0.803670000000     0.319460000000    -0.354077   
O120     O      0.172860000000     0.874640000000     0.292320000000    -0.397275   
O121     O      0.036480000000     0.540270000000     0.459310000000    -0.395081   
O122     O      0.000780000000     0.469070000000     0.485780000000    -0.391016   
O123     O      0.016280000000     0.495660000000     0.421730000000    -0.393358   
O124     O      0.020970000000     0.513410000000     0.523570000000    -0.398711   
O125     O      0.985890000000     0.513080000000     0.519990000000    -0.399615   
O126     O      0.981310000000     0.495500000000     0.417760000000    -0.394537   
O127     O      0.965650000000     0.468610000000     0.482030000000    -0.394052   
O128     O      0.001320000000     0.539770000000     0.455920000000    -0.392423   
O129     O      0.870000000000     0.206550000000     0.621880000000    -0.402088   
O130     O      0.836020000000     0.135280000000     0.647480000000    -0.35561    
O131     O      0.847370000000     0.162410000000     0.583450000000    -0.392787   
O132     O      0.858840000000     0.179640000000     0.685720000000    -0.391978   
O133     O      0.823480000000     0.178770000000     0.688570000000    -0.392259   
O134     O      0.812030000000     0.161570000000     0.586210000000    -0.391433   
O135     O      0.800850000000     0.134690000000     0.650040000000    -0.402522   
O136     O      0.834830000000     0.205980000000     0.624510000000    -0.355046   
O137     O      0.675470000000     0.803240000000     0.819920000000    -0.393602   
O138     O      0.708860000000     0.874160000000     0.792360000000    -0.39072    
O139     O      0.694300000000     0.848140000000     0.856910000000    -0.357631   
O140     O      0.690280000000     0.829770000000     0.755240000000    -0.397533   
O141     O      0.654280000000     0.827430000000     0.751180000000    -0.396009   
O142     O      0.658190000000     0.845510000000     0.853120000000    -0.400695   
O143     O      0.673010000000     0.872140000000     0.788500000000    -0.395051   
O144     O      0.639620000000     0.801190000000     0.815730000000    -0.397425   


