data_structure

_audit_creation_method RASPA-1.0
_audit_creation_date 2023-5-19
_audit_author_name 'Poobodin Mano'

_cell_length_a    39.005
_cell_length_b    39.0081
_cell_length_c    38.9863
_cell_angle_alpha 90
_cell_angle_beta  90
_cell_angle_gamma 90
_cell_volume      59318.1

_symmetry_cell_setting          triclinic
_symmetry_space_group_name_Hall 'P 1'
_symmetry_space_group_name_H-M  'P 1'
_symmetry_Int_Tables_number     1

_symmetry_equiv_pos_as_xyz 'x,y,z'

loop_
_atom_site_label
_atom_site_type_symbol
_atom_site_fract_x
_atom_site_fract_y
_atom_site_fract_z
_atom_site_charge
C1       C      0.997330000000     0.070570000000     0.487500000000     0.410704   
C2       C      0.005580000000     0.933970000000     0.491240000000     0.406817   
C3       C      0.070190000000     0.007000000000     0.488870000000     0.409083   
C4       C      0.933580000000     0.998480000000     0.489670000000     0.408999   
C5       C      0.000820000000     0.433840000000     0.497530000000     0.407446   
C6       C      0.000530000000     0.570610000000     0.503590000000     0.412625   
C7       C      0.998370000000     0.505390000000     0.431830000000     0.408746   
C8       C      0.002980000000     0.500500000000     0.568730000000     0.410312   
C9       C      0.570290000000     0.990090000000     0.495670000000     0.408583   
C10      C      0.433410000000     0.995760000000     0.494720000000     0.406904   
C11      C      0.502050000000     0.994280000000     0.426590000000     0.407093   
C12      C      0.501790000000     0.991700000000     0.563620000000     0.408214   
C13      C      0.493820000000     0.994510000000     0.063660000000     0.408951   
C14      C      0.493650000000     0.998400000000     0.926760000000     0.411223   
C15      C      0.497400000000     0.065320000000     0.995720000000     0.408993   
C16      C      0.490210000000     0.928610000000     0.992930000000     0.41063    
C17      C      0.994420000000     0.492210000000     0.069050000000     0.406429   
C18      C      0.995010000000     0.490310000000     0.932170000000     0.406129   
C19      C      0.062980000000     0.490150000000     0.000930000000     0.406218   
C20      C      0.926170000000     0.492160000000     0.000360000000     0.40637    
C21      C      0.495950000000     0.428640000000     0.002090000000     0.407425   
C22      C      0.492500000000     0.565380000000     0.001410000000     0.410951   
C23      C      0.425780000000     0.496200000000     0.003700000000     0.407703   
C24      C      0.562660000000     0.499620000000     0.999720000000     0.408543   
C25      C      0.652090000000     0.505990000000     0.968750000000    -0.0579133  
C26      C      0.872650000000     0.462670000000     0.999090000000     0.0736591  
C27      C      0.873680000000     0.523380000000     0.001320000000     0.0739443  
C28      C      0.836840000000     0.462830000000     0.998800000000    -0.0926085  
C29      C      0.761670000000     0.470240000000     0.017700000000    -0.0327757  
C30      C      0.725840000000     0.471110000000     0.017360000000    -0.0366099  
C31      C      0.780820000000     0.494700000000     0.999380000000    -0.00674168 
C32      C      0.837900000000     0.524460000000     0.001200000000    -0.0928151  
C33      C      0.708270000000     0.496490000000     0.998720000000     0.000212162
C34      C      0.651540000000     0.491750000000     0.028630000000    -0.0837468  
C35      C      0.727430000000     0.520940000000     0.980410000000    -0.0365032  
C36      C      0.615840000000     0.493540000000     0.028260000000     0.0698314  
C37      C      0.616170000000     0.508680000000     0.969130000000     0.0265499  
C38      C      0.763220000000     0.520000000000     0.980660000000    -0.0323354  
C39      C      0.818960000000     0.493970000000     0.999830000000     0.0510994  
C40      C      0.670140000000     0.497700000000     0.998610000000     0.0389552  
C41      C      0.600110000000     0.523210000000     0.937780000000     0.291146   
C42      C      0.335660000000     0.497640000000     0.033780000000    -0.0579364  
C43      C      0.115630000000     0.459280000000     0.004350000000     0.073635   
C44      C      0.116310000000     0.519740000000     0.998010000000     0.073955   
C45      C      0.151450000000     0.458470000000     0.004740000000    -0.0931869  
C46      C      0.226270000000     0.470000000000     0.026230000000    -0.0324966  
C47      C      0.262120000000     0.470620000000     0.026780000000    -0.0371125  
C48      C      0.208080000000     0.488660000000     0.001340000000    -0.0073466  
C49      C      0.152100000000     0.519790000000     0.997860000000    -0.0932784  
C50      C      0.280430000000     0.489530000000     0.002170000000    -0.000220544
C51      C      0.337530000000     0.487200000000     0.973150000000    -0.0842533  
C52      C      0.262210000000     0.507780000000     0.977000000000    -0.0368096  
C53      C      0.373140000000     0.489660000000     0.974260000000     0.0697973  
C54      C      0.371520000000     0.501300000000     0.034170000000     0.0261417  
C55      C      0.226410000000     0.507500000000     0.976710000000    -0.0328201  
C56      C      0.170070000000     0.488940000000     0.001320000000     0.0513855  
C57      C      0.318410000000     0.490920000000     0.003120000000     0.0389781  
C58      C      0.386580000000     0.514200000000     0.066670000000     0.291712   
C59      C      0.457660000000     0.839580000000     0.988540000000    -0.0573467  
C60      C      0.491640000000     0.618100000000     0.970620000000     0.0785164  
C61      C      0.490290000000     0.618590000000     0.031400000000     0.0780764  
C62      C      0.490600000000     0.653850000000     0.969830000000    -0.0916174  
C63      C      0.506710000000     0.729860000000     0.024230000000    -0.0320699  
C64      C      0.506190000000     0.765680000000     0.023310000000    -0.0357314  
C65      C      0.488120000000     0.710620000000     0.000060000000    -0.00589019 
C66      C      0.489090000000     0.654380000000     0.031540000000    -0.0913134  
C67      C      0.487130000000     0.783120000000     0.998160000000     0.000707379
C68      C      0.517800000000     0.839430000000     0.001550000000    -0.083608   
C69      C      0.468340000000     0.763870000000     0.974150000000    -0.0358393  
C70      C      0.517930000000     0.875080000000     0.999240000000     0.0719433  
C71      C      0.458520000000     0.875460000000     0.985340000000     0.029738   
C72      C      0.468770000000     0.728080000000     0.975140000000    -0.0316903  
C73      C      0.489230000000     0.672500000000     0.000510000000     0.0527406  
C74      C      0.487420000000     0.821220000000     0.996500000000     0.0403852  
C75      C      0.427080000000     0.891810000000     0.971410000000     0.292562   
C76      C      0.529890000000     0.154390000000     0.991470000000    -0.0578026  
C77      C      0.495310000000     0.375560000000     0.971900000000     0.0746763  
C78      C      0.499150000000     0.375750000000     0.032570000000     0.0744835  
C79      C      0.496130000000     0.339780000000     0.971500000000    -0.0924244  
C80      C      0.481810000000     0.264420000000     0.027280000000    -0.0327504  
C81      C      0.482280000000     0.228580000000     0.026790000000    -0.036505   
C82      C      0.499610000000     0.283350000000     0.002270000000    -0.00661783 
C83      C      0.500110000000     0.339950000000     0.033090000000    -0.0923451  
C84      C      0.500550000000     0.210830000000     0.001270000000     0.00017781 
C85      C      0.470120000000     0.154450000000     0.006050000000    -0.083433   
C86      C      0.518510000000     0.229780000000     0.976400000000    -0.0363984  
C87      C      0.469960000000     0.118800000000     0.003690000000     0.0702289  
C88      C      0.528990000000     0.118520000000     0.988240000000     0.0264925  
C89      C      0.518100000000     0.265580000000     0.976930000000    -0.0324267  
C90      C      0.498620000000     0.321480000000     0.002320000000     0.0512993  
C91      C      0.500300000000     0.172710000000     0.000080000000     0.0390339  
C92      C      0.560100000000     0.102280000000     0.973450000000     0.291157   
C93      C      0.498170000000     0.963110000000     0.654340000000    -0.057614   
C94      C      0.463200000000     0.998410000000     0.873760000000     0.0781466  
C95      C      0.523990000000     0.999410000000     0.873740000000     0.0783734  
C96      C      0.462740000000     0.998230000000     0.837930000000    -0.0916859  
C97      C      0.472160000000     0.975840000000     0.763440000000    -0.03213    
C98      C      0.472980000000     0.974740000000     0.727620000000    -0.036477   
C99      C      0.493690000000     0.998370000000     0.781550000000    -0.00636991 
C100     C      0.524440000000     0.999560000000     0.837940000000    -0.0917272  
C101     C      0.495100000000     0.996390000000     0.709160000000     1.50121e-05
C102     C      0.497850000000     0.024520000000     0.651550000000    -0.0840836  
C103     C      0.516290000000     0.019230000000     0.727260000000    -0.0361885  
C104     C      0.500070000000     0.022470000000     0.615940000000     0.0701959  
C105     C      0.501480000000     0.961550000000     0.618490000000     0.027597   
C106     C      0.515680000000     0.020120000000     0.763080000000    -0.0326729  
C107     C      0.493590000000     0.998820000000     0.819600000000     0.0527294  
C108     C      0.496640000000     0.994670000000     0.671160000000     0.0395976  
C109     C      0.507120000000     0.926910000000     0.603950000000     0.291836   
C110     C      0.465830000000     0.991340000000     0.154370000000    -0.0581238  
C111     C      0.500590000000     0.025640000000     0.374140000000     0.0742838  
C112     C      0.503320000000     0.964920000000     0.373020000000     0.0749548  
C113     C      0.500060000000     0.026740000000     0.338330000000    -0.0931095  
C114     C      0.476810000000     0.017110000000     0.263860000000    -0.0322876  
C115     C      0.475640000000     0.016940000000     0.228030000000    -0.0367827  
C116     C      0.500880000000     0.996860000000     0.281450000000    -0.00696553 
C117     C      0.503290000000     0.965120000000     0.337200000000    -0.0924598  
C118     C      0.498820000000     0.996880000000     0.209090000000    -3.17225e-05
C119     C      0.526850000000     0.998630000000     0.151420000000    -0.0839102  
C120     C      0.523190000000     0.977010000000     0.226670000000    -0.0364699  
C121     C      0.524850000000     0.997280000000     0.115750000000     0.0701964  
C122     C      0.464480000000     0.988710000000     0.118440000000     0.0273017  
C123     C      0.524080000000     0.976840000000     0.262500000000    -0.0326884  
C124     C      0.501490000000     0.996260000000     0.319460000000     0.0517759  
C125     C      0.497120000000     0.996090000000     0.171100000000     0.0393939  
C126     C      0.431120000000     0.977740000000     0.103740000000     0.290729   
C127     C      0.033750000000     0.502430000000     0.658560000000    -0.0578349  
C128     C      0.997230000000     0.459670000000     0.879230000000     0.0733819  
C129     C      0.995110000000     0.520390000000     0.879040000000     0.0740186  
C130     C      0.998670000000     0.459180000000     0.843400000000    -0.0923594  
C131     C      0.982630000000     0.465800000000     0.767180000000    -0.0326634  
C132     C      0.983950000000     0.466700000000     0.731330000000    -0.0364072  
C133     C      0.000460000000     0.490230000000     0.786820000000    -0.00677846 
C134     C      0.996390000000     0.520820000000     0.843280000000    -0.0929137  
C135     C      0.003140000000     0.492040000000     0.714280000000     0.000369571
C136     C      0.973820000000     0.488610000000     0.657150000000    -0.0831214  
C137     C      0.021200000000     0.516250000000     0.733960000000    -0.0362277  
C138     C      0.974410000000     0.491730000000     0.621540000000     0.0729432  
C139     C      0.033590000000     0.506470000000     0.622740000000     0.0284228  
C140     C      0.019960000000     0.515290000000     0.769740000000    -0.0322376  
C141     C      0.998430000000     0.490010000000     0.824940000000     0.0510727  
C142     C      0.003710000000     0.493830000000     0.676150000000     0.0397443  
C143     C      0.065200000000     0.521220000000     0.607450000000     0.290492   
C144     C      0.967060000000     0.508260000000     0.342260000000    -0.0583013  
C145     C      0.991650000000     0.463050000000     0.122760000000     0.073664   
C146     C      0.998040000000     0.523490000000     0.121380000000     0.0740231  
C147     C      0.991930000000     0.463410000000     0.158620000000    -0.093118   
C148     C      0.972080000000     0.477470000000     0.233530000000    -0.0324173  
C149     C      0.972320000000     0.479270000000     0.269350000000    -0.036909   
C150     C      0.996590000000     0.495440000000     0.214190000000    -0.00717457 
C151     C      0.998870000000     0.524700000000     0.157140000000    -0.0931676  
C152     C      0.997350000000     0.498690000000     0.286510000000    -0.00013913 
C153     C      0.027660000000     0.497640000000     0.343030000000    -0.084283   
C154     C      0.022140000000     0.516270000000     0.267160000000    -0.0367949  
C155     C      0.027220000000     0.500220000000     0.378680000000     0.069865   
C156     C      0.967360000000     0.512070000000     0.378110000000     0.0272193  
C157     C      0.021640000000     0.514820000000     0.231360000000    -0.0328984  
C158     C      0.995780000000     0.494460000000     0.176180000000     0.0514233  
C159     C      0.997300000000     0.501110000000     0.324470000000     0.0392538  
C160     C      0.935360000000     0.525490000000     0.393810000000     0.290654   
C161     C      0.160170000000     0.014400000000     0.459870000000    -0.0581692  
C162     C      0.379240000000     0.967590000000     0.492630000000     0.0747923  
C163     C      0.381650000000     0.028210000000     0.495890000000     0.0741786  
C164     C      0.343450000000     0.968570000000     0.492060000000    -0.0922282  
C165     C      0.268400000000     0.977420000000     0.510570000000    -0.0327756  
C166     C      0.232600000000     0.978860000000     0.509710000000    -0.0363215  
C167     C      0.288190000000     0.001660000000     0.492640000000    -0.00652809 
C168     C      0.345900000000     0.030120000000     0.495460000000    -0.092604   
C169     C      0.215710000000     0.004590000000     0.490940000000     8.84525e-05
C170     C      0.158440000000     0.000420000000     0.519800000000    -0.0840187  
C171     C      0.235500000000     0.028870000000     0.473080000000    -0.0363763  
C172     C      0.122760000000     0.002040000000     0.518690000000     0.0698604  
C173     C      0.124220000000     0.016850000000     0.459490000000     0.027389   
C174     C      0.271280000000     0.027390000000     0.473870000000    -0.0323849  
C175     C      0.326290000000     0.000090000000     0.493440000000     0.0513389  
C176     C      0.177610000000     0.006190000000     0.490120000000     0.0391845  
C177     C      0.108650000000     0.031180000000     0.427800000000     0.29008    
C178     C      0.660250000000     0.959080000000     0.495920000000    -0.0579621  
C179     C      0.880480000000     0.996100000000     0.459520000000     0.0771506  
C180     C      0.880780000000     0.996190000000     0.520330000000     0.0753924  
C181     C      0.844700000000     0.994790000000     0.459230000000    -0.0918298  
C182     C      0.769240000000     0.012950000000     0.467520000000    -0.0325737  
C183     C      0.733410000000     0.012000000000     0.468050000000    -0.0361454  
C184     C      0.788440000000     0.992770000000     0.490410000000    -0.00640004 
C185     C      0.845010000000     0.994760000000     0.520960000000    -0.0925016  
C186     C      0.716010000000     0.990720000000     0.491360000000     0.000203134
C187     C      0.659050000000     0.020300000000     0.490530000000    -0.0838782  
C188     C      0.735230000000     0.970410000000     0.514110000000    -0.0360692  
C189     C      0.623380000000     0.019310000000     0.492320000000     0.0702141  
C190     C      0.624290000000     0.958610000000     0.498230000000     0.0279624  
C191     C      0.771020000000     0.971460000000     0.513670000000    -0.0321212  
C192     C      0.826510000000     0.994100000000     0.490190000000     0.0521298  
C193     C      0.677940000000     0.990000000000     0.492290000000     0.0398321  
C194     C      0.608580000000     0.924740000000     0.505330000000     0.292681   
C195     C      0.972160000000     0.660900000000     0.510120000000    -0.0573344  
C196     C      0.008500000000     0.882030000000     0.523260000000     0.0741775  
C197     C      0.005420000000     0.879960000000     0.462580000000     0.0743746  
C198     C      0.008600000000     0.846290000000     0.524950000000    -0.0925652  
C199     C      0.023100000000     0.768740000000     0.471830000000    -0.032434   
C200     C      0.021950000000     0.732940000000     0.473280000000    -0.0357604  
C201     C      0.005640000000     0.788680000000     0.496300000000    -0.0063139  
C202     C      0.005310000000     0.844140000000     0.463360000000    -0.0919084  
C203     C      0.003360000000     0.716190000000     0.499250000000     0.000666374
C204     C      0.031660000000     0.658640000000     0.494660000000    -0.0830384  
C205     C      0.985960000000     0.736140000000     0.523740000000    -0.0358196  
C206     C      0.030380000000     0.622980000000     0.496770000000     0.0745396  
C207     C      0.971640000000     0.625000000000     0.513110000000     0.0317512  
C208     C      0.987010000000     0.771900000000     0.522220000000    -0.0319127  
C209     C      0.006680000000     0.826800000000     0.494820000000     0.0513126  
C210     C      0.002290000000     0.678080000000     0.501000000000     0.0409331  
C211     C      0.940170000000     0.609890000000     0.528350000000     0.291873   
C212     C      0.990020000000     0.160250000000     0.457280000000    -0.0574652  
C213     C      0.031130000000     0.380950000000     0.493040000000     0.0744345  
C214     C      0.970490000000     0.380830000000     0.497030000000     0.074623   
C215     C      0.031540000000     0.345180000000     0.491160000000    -0.0922336  
C216     C      0.025590000000     0.269320000000     0.507730000000    -0.0327371  
C217     C      0.025070000000     0.233510000000     0.506450000000    -0.0361746  
C218     C      0.000590000000     0.288660000000     0.490380000000    -0.0064715  
C219     C      0.969980000000     0.345080000000     0.495280000000    -0.0922598  
C220     C      0.999520000000     0.216170000000     0.487840000000     0.000371368
C221     C      0.004530000000     0.159230000000     0.517090000000    -0.0837     
C222     C      0.974660000000     0.235520000000     0.470300000000    -0.0362743  
C223     C      0.002940000000     0.123560000000     0.516420000000     0.0715924  
C224     C      0.987620000000     0.124280000000     0.457340000000     0.029729   
C225     C      0.975220000000     0.271320000000     0.471520000000    -0.0323355  
C226     C      0.000720000000     0.326760000000     0.492250000000     0.0512507  
C227     C      0.998400000000     0.178050000000     0.487270000000     0.0400944  
C228     C      0.973270000000     0.108350000000     0.425850000000     0.292556   
Cu1      Cu     0.002030000000     0.003130000000     0.520920000000     0.847139   
Cu2      Cu     0.001730000000     0.001400000000     0.457750000000     0.866257   
Cu3      Cu     0.969160000000     0.502070000000     0.501310000000     0.866719   
Cu4      Cu     0.032230000000     0.502320000000     0.499210000000     0.854998   
Cu5      Cu     0.500480000000     0.961460000000     0.494410000000     0.863268   
Cu6      Cu     0.503060000000     0.024500000000     0.495630000000     0.846472   
Cu7      Cu     0.525300000000     0.995310000000     0.995080000000     0.857104   
Cu8      Cu     0.462280000000     0.998590000000     0.995260000000     0.866425   
Cu9      Cu     0.994100000000     0.459530000000     0.001060000000     0.844443   
Cu10     Cu     0.995060000000     0.522750000000     0.000170000000     0.851878   
Cu11     Cu     0.495150000000     0.497170000000     0.033350000000     0.855618   
Cu12     Cu     0.493360000000     0.496860000000     0.970190000000     0.859216   
H1       H      0.887220000000     0.547630000000     0.002450000000     0.0269374  
H2       H      0.602790000000     0.487870000000     0.052160000000     0.0291791  
H3       H      0.777100000000     0.539000000000     0.965920000000     0.0395355  
H4       H      0.711890000000     0.451710000000     0.031500000000     0.0404708  
H5       H      0.664470000000     0.485950000000     0.052520000000     0.0527677  
H6       H      0.774360000000     0.450620000000     0.032710000000     0.0388226  
H7       H      0.666030000000     0.511360000000     0.945290000000     0.0584198  
H8       H      0.825220000000     0.549110000000     0.002600000000     0.0545511  
H9       H      0.823310000000     0.438630000000     0.997250000000     0.0543363  
H10      H      0.714790000000     0.541150000000     0.966180000000     0.0421407  
H11      H      0.885380000000     0.437980000000     0.998110000000     0.0267366  
H12      H      0.599820000000     0.520870000000     0.885730000000     0.181927   
H13      H      0.103460000000     0.544250000000     0.995400000000     0.0268321  
H14      H      0.386630000000     0.485640000000     0.950270000000     0.0294364  
H15      H      0.213030000000     0.521910000000     0.957080000000     0.0394235  
H16      H      0.275540000000     0.456200000000     0.046360000000     0.0432642  
H17      H      0.325050000000     0.481930000000     0.948890000000     0.05302    
H18      H      0.212770000000     0.455440000000     0.045650000000     0.0397885  
H19      H      0.321000000000     0.502060000000     0.057010000000     0.0582521  
H20      H      0.165610000000     0.543940000000     0.995490000000     0.0551009  
H21      H      0.164460000000     0.434060000000     0.007230000000     0.054715   
H22      H      0.275660000000     0.522820000000     0.957910000000     0.041237   
H23      H      0.102210000000     0.435080000000     0.006890000000     0.0266928  
H24      H      0.386990000000     0.507560000000     0.118340000000     0.182018   
H25      H      0.489990000000     0.605640000000     0.056010000000     0.0322223  
H26      H      0.542150000000     0.887790000000     0.004200000000     0.0299356  
H27      H      0.453800000000     0.714100000000     0.956390000000     0.040513   
H28      H      0.520680000000     0.779720000000     0.042400000000     0.041702   
H29      H      0.541610000000     0.826240000000     0.007020000000     0.0535666  
H30      H      0.522170000000     0.717280000000     0.043560000000     0.0401613  
H31      H      0.433910000000     0.825910000000     0.983840000000     0.0594305  
H32      H      0.487610000000     0.667700000000     0.055870000000     0.056753   
H33      H      0.491340000000     0.666750000000     0.945250000000     0.0565474  
H34      H      0.453730000000     0.776430000000     0.954150000000     0.0425627  
H35      H      0.492770000000     0.604790000000     0.946230000000     0.0322629  
H36      H      0.375160000000     0.893160000000     0.975320000000     0.183257   
H37      H      0.500490000000     0.388980000000     0.057000000000     0.0280076  
H38      H      0.445900000000     0.106010000000     0.009250000000     0.0307804  
H39      H      0.532440000000     0.279320000000     0.957520000000     0.0398331  
H40      H      0.468410000000     0.214780000000     0.046490000000     0.0409625  
H41      H      0.446450000000     0.167620000000     0.012160000000     0.0533319  
H42      H      0.467030000000     0.277280000000     0.046960000000     0.0394053  
H43      H      0.553490000000     0.168090000000     0.986150000000     0.0581166  
H44      H      0.502490000000     0.326900000000     0.057500000000     0.0548696  
H45      H      0.494360000000     0.326590000000     0.947120000000     0.0549047  
H46      H      0.532460000000     0.216970000000     0.956090000000     0.0420955  
H47      H      0.493290000000     0.388590000000     0.947420000000     0.0280259  
H48      H      0.612090000000     0.100820000000     0.976240000000     0.181591   
H49      H      0.548490000000     0.999790000000     0.886880000000     0.0324601  
H50      H      0.500230000000     0.046620000000     0.602170000000     0.0295605  
H51      H      0.532340000000     0.037960000000     0.776330000000     0.0407005  
H52      H      0.456200000000     0.957050000000     0.714330000000     0.0438025  
H53      H      0.496570000000     0.049500000000     0.663620000000     0.0530576  
H54      H      0.455140000000     0.958590000000     0.777010000000     0.0414644  
H55      H      0.498490000000     0.939650000000     0.669310000000     0.0578726  
H56      H      0.548870000000     0.999690000000     0.824720000000     0.0568438  
H57      H      0.438330000000     0.997980000000     0.824690000000     0.0566268  
H58      H      0.533820000000     0.036000000000     0.713740000000     0.0415155  
H59      H      0.438720000000     0.997970000000     0.886910000000     0.0325474  
H60      H      0.488110000000     0.878470000000     0.602310000000     0.182042   
H61      H      0.504530000000     0.940220000000     0.385700000000     0.029714   
H62      H      0.548690000000     0.000440000000     0.101810000000     0.0305249  
H63      H      0.543050000000     0.961190000000     0.275410000000     0.0404574  
H64      H      0.456710000000     0.032610000000     0.215090000000     0.043652   
H65      H      0.551600000000     0.002300000000     0.163500000000     0.053646   
H66      H      0.458480000000     0.032590000000     0.277850000000     0.0401383  
H67      H      0.442720000000     0.987720000000     0.169440000000     0.0590754  
H68      H      0.504130000000     0.940980000000     0.323490000000     0.0564112  
H69      H      0.498920000000     0.051340000000     0.325500000000     0.0549789  
H70      H      0.541170000000     0.961100000000     0.212720000000     0.0416544  
H71      H      0.499540000000     0.049860000000     0.387740000000     0.0267933  
H72      H      0.379770000000     0.986340000000     0.105070000000     0.183519   
H73      H      0.993610000000     0.544910000000     0.892060000000     0.0269552  
H74      H      0.950530000000     0.486750000000     0.608170000000     0.0320577  
H75      H      0.034400000000     0.534220000000     0.784030000000     0.0395506  
H76      H      0.969990000000     0.447470000000     0.716960000000     0.0404827  
H77      H      0.949810000000     0.482560000000     0.669730000000     0.0540004  
H78      H      0.967120000000     0.446330000000     0.779470000000     0.038924   
H79      H      0.057150000000     0.507150000000     0.672830000000     0.0583117  
H80      H      0.995460000000     0.545250000000     0.830130000000     0.0547677  
H81      H      0.000560000000     0.434750000000     0.830320000000     0.0541452  
H82      H      0.035850000000     0.536420000000     0.721750000000     0.0427716  
H83      H      0.997750000000     0.435240000000     0.892480000000     0.0267152  
H84      H      0.117150000000     0.517710000000     0.606830000000     0.181953   
H85      H      0.000450000000     0.547570000000     0.107700000000     0.0269633  
H86      H      0.051410000000     0.496140000000     0.391780000000     0.0293847  
H87      H      0.041000000000     0.528720000000     0.217080000000     0.0394986  
H88      H      0.953030000000     0.465320000000     0.283670000000     0.0435541  
H89      H      0.051650000000     0.492190000000     0.330120000000     0.0530934  
H90      H      0.952350000000     0.462520000000     0.220940000000     0.039941   
H91      H      0.943590000000     0.512710000000     0.328000000000     0.0591715  
H92      H      0.001520000000     0.549280000000     0.169820000000     0.055122   
H93      H      0.989670000000     0.439440000000     0.172470000000     0.0548061  
H94      H      0.041570000000     0.531650000000     0.279710000000     0.0411854  
H95      H      0.988860000000     0.438430000000     0.110160000000     0.0266473  
H96      H      0.883520000000     0.520560000000     0.394290000000     0.183615   
H97      H      0.395750000000     0.052110000000     0.497520000000     0.026824   
H98      H      0.109240000000     0.996410000000     0.542340000000     0.0285726  
H99      H      0.285690000000     0.046240000000     0.459460000000     0.0396172  
H100     H      0.218140000000     0.959590000000     0.523520000000     0.0406917  
H101     H      0.170910000000     0.994740000000     0.543970000000     0.0526151  
H102     H      0.280560000000     0.957490000000     0.525600000000     0.0395912  
H103     H      0.174580000000     0.019750000000     0.436700000000     0.0591198  
H104     H      0.333750000000     0.055030000000     0.497100000000     0.0544436  
H105     H      0.329380000000     0.944730000000     0.490010000000     0.0554072  
H106     H      0.223360000000     0.049310000000     0.458730000000     0.0422095  
H107     H      0.391390000000     0.942620000000     0.491350000000     0.0288631  
H108     H      0.109870000000     0.029230000000     0.375740000000     0.183708   
H109     H      0.894020000000     0.996830000000     0.544780000000     0.0273394  
H110     H      0.610240000000     0.043740000000     0.490510000000     0.0294943  
H111     H      0.785080000000     0.955350000000     0.531410000000     0.0402281  
H112     H      0.719330000000     0.027760000000     0.450030000000     0.0410671  
H113     H      0.671780000000     0.044870000000     0.488200000000     0.0530704  
H114     H      0.781890000000     0.029880000000     0.449500000000     0.0405969  
H115     H      0.674490000000     0.935240000000     0.497560000000     0.0576869  
H116     H      0.831950000000     0.994670000000     0.545480000000     0.0551467  
H117     H      0.831420000000     0.993910000000     0.434850000000     0.0564715  
H118     H      0.722580000000     0.954030000000     0.532650000000     0.0432758  
H119     H      0.893490000000     0.996530000000     0.434950000000     0.0319436  
H120     H      0.579530000000     0.898030000000     0.539210000000     0.19139    
H121     H      0.003960000000     0.892260000000     0.437690000000     0.0287097  
H122     H      0.053810000000     0.609270000000     0.490740000000     0.0324145  
H123     H      0.972880000000     0.786390000000     0.541240000000     0.0399683  
H124     H      0.035410000000     0.718370000000     0.453840000000     0.0415606  
H125     H      0.055750000000     0.670860000000     0.488250000000     0.0543076  
H126     H      0.038000000000     0.780780000000     0.451730000000     0.0397192  
H127     H      0.949190000000     0.675500000000     0.515820000000     0.0598056  
H128     H      0.003420000000     0.830190000000     0.439420000000     0.055461   
H129     H      0.010370000000     0.834050000000     0.549820000000     0.0546409  
H130     H      0.971800000000     0.724150000000     0.544400000000     0.0428902  
H131     H      0.009860000000     0.895990000000     0.547270000000     0.0268856  
H132     H      0.888130000000     0.610900000000     0.526920000000     0.183771   
H133     H      0.946070000000     0.393870000000     0.499430000000     0.0284759  
H134     H      0.008760000000     0.110380000000     0.540210000000     0.0294478  
H135     H      0.955820000000     0.285400000000     0.457520000000     0.0400032  
H136     H      0.044780000000     0.219400000000     0.519990000000     0.041332   
H137     H      0.010360000000     0.171970000000     0.541080000000     0.0529667  
H138     H      0.045290000000     0.281810000000     0.522780000000     0.0394644  
H139     H      0.984430000000     0.174390000000     0.434000000000     0.0592132  
H140     H      0.945580000000     0.331910000000     0.496770000000     0.0549553  
H141     H      0.055890000000     0.332140000000     0.488400000000     0.0551242  
H142     H      0.954370000000     0.223020000000     0.456060000000     0.0421011  
H143     H      0.055570000000     0.394140000000     0.491970000000     0.0280815  
H144     H      0.975660000000     0.108540000000     0.373800000000     0.183038   
N1       N      0.597970000000     0.501070000000     0.998770000000    -0.177349   
N2       N      0.890980000000     0.492730000000     0.000260000000    -0.193537   
N3       N      0.390400000000     0.496080000000     0.004410000000    -0.177084   
N4       N      0.098170000000     0.489710000000     0.001100000000    -0.193573   
N5       N      0.488590000000     0.893300000000     0.992030000000    -0.176561   
N6       N      0.491490000000     0.600550000000     0.001160000000    -0.191702   
N7       N      0.499090000000     0.100630000000     0.995510000000    -0.177219   
N8       N      0.496810000000     0.393450000000     0.002200000000    -0.193247   
N9       N      0.501480000000     0.991440000000     0.599080000000    -0.176362   
N10      N      0.493610000000     0.998810000000     0.891560000000    -0.191637   
N11      N      0.494020000000     0.993100000000     0.099030000000    -0.177131   
N12      N      0.502030000000     0.994950000000     0.391390000000    -0.193271   
N13      N      0.003970000000     0.499960000000     0.604100000000    -0.176335   
N14      N      0.995690000000     0.490080000000     0.896960000000    -0.193429   
N15      N      0.997360000000     0.506450000000     0.396470000000    -0.177276   
N16      N      0.994650000000     0.492880000000     0.104260000000    -0.193517   
N17      N      0.105470000000     0.009150000000     0.488750000000    -0.177565   
N18      N      0.398240000000     0.997180000000     0.494440000000    -0.193234   
N19      N      0.605700000000     0.988920000000     0.495780000000    -0.176122   
N20      N      0.898420000000     0.996870000000     0.489840000000    -0.192558   
N21      N      0.000590000000     0.605950000000     0.505010000000    -0.175559   
N22      N      0.006660000000     0.898800000000     0.492330000000    -0.193192   
N23      N      0.995450000000     0.105880000000     0.486790000000    -0.176344   
N24      N      0.000830000000     0.398680000000     0.495900000000    -0.193174   
O1       O      0.998750000000     0.054860000000     0.516440000000    -0.395387   
O2       O      0.005200000000     0.951210000000     0.519320000000    -0.397827   
O3       O      0.053900000000     0.006340000000     0.517520000000    -0.396061   
O4       O      0.950120000000     0.999870000000     0.518150000000    -0.396331   
O5       O      0.949860000000     0.998760000000     0.461030000000    -0.391687   
O6       O      0.053620000000     0.004390000000     0.460550000000    -0.382208   
O7       O      0.004430000000     0.949530000000     0.462210000000    -0.396455   
O8       O      0.998920000000     0.053380000000     0.459470000000    -0.375116   
O9       O      0.972280000000     0.450160000000     0.499510000000    -0.397618   
O10      O      0.972140000000     0.554020000000     0.502930000000    -0.375662   
O11      O      0.970530000000     0.503730000000     0.449280000000    -0.3822     
O12      O      0.973920000000     0.500570000000     0.553160000000    -0.38994    
O13      O      0.030850000000     0.500120000000     0.551240000000    -0.381513   
O14      O      0.027430000000     0.504720000000     0.447390000000    -0.396499   
O15      O      0.029080000000     0.554240000000     0.501720000000    -0.388025   
O16      O      0.029320000000     0.450350000000     0.496950000000    -0.396576   
O17      O      0.552560000000     0.962400000000     0.494880000000    -0.378147   
O18      O      0.448670000000     0.966580000000     0.493910000000    -0.396305   
O19      O      0.501250000000     0.965430000000     0.442480000000    -0.395801   
O20      O      0.499900000000     0.963660000000     0.546520000000    -0.378658   
O21      O      0.503150000000     0.020430000000     0.547520000000    -0.395789   
O22      O      0.502770000000     0.022500000000     0.443570000000    -0.397351   
O23      O      0.450990000000     0.023610000000     0.495690000000    -0.397152   
O24      O      0.554870000000     0.019230000000     0.495600000000    -0.395397   
O25      O      0.522290000000     0.993690000000     0.047060000000    -0.39571    
O26      O      0.522210000000     0.997080000000     0.943130000000    -0.38989    
O27      O      0.524920000000     0.047330000000     0.996500000000    -0.382733   
O28      O      0.519540000000     0.943630000000     0.993420000000    -0.395963   
O29      O      0.462670000000     0.946540000000     0.994420000000    -0.376038   
O30      O      0.468040000000     0.050330000000     0.995880000000    -0.395724   
O31      O      0.465140000000     0.999130000000     0.943260000000    -0.390554   
O32      O      0.465490000000     0.997570000000     0.047230000000    -0.382237   
O33      O      0.993370000000     0.463390000000     0.053100000000    -0.396068   
O34      O      0.994950000000     0.461910000000     0.948910000000    -0.395745   
O35      O      0.046150000000     0.461840000000     0.001860000000    -0.396628   
O36      O      0.942160000000     0.463360000000     0.000270000000    -0.396855   
O37      O      0.943040000000     0.520460000000     0.000550000000    -0.397512   
O38      O      0.046950000000     0.518910000000     0.999850000000    -0.397809   
O39      O      0.994730000000     0.519020000000     0.948310000000    -0.398434   
O40      O      0.995430000000     0.520450000000     0.052140000000    -0.398311   
O41      O      0.496720000000     0.445200000000     0.030570000000    -0.396564   
O42      O      0.493360000000     0.549130000000     0.030070000000    -0.389525   
O43      O      0.443100000000     0.495590000000     0.031680000000    -0.381438   
O44      O      0.547030000000     0.498920000000     0.028760000000    -0.395704   
O45      O      0.545350000000     0.497960000000     0.971790000000    -0.382883   
O46      O      0.441540000000     0.496130000000     0.974730000000    -0.396973   
O47      O      0.492520000000     0.548790000000     0.972940000000    -0.390242   
O48      O      0.494390000000     0.444930000000     0.973490000000    -0.397324   
O49      O      0.609450000000     0.511440000000     0.906570000000    -0.333905   
O50      O      0.579700000000     0.546890000000     0.940040000000    -0.227682   
O51      O      0.378040000000     0.499270000000     0.096730000000    -0.33416    
O52      O      0.405310000000     0.539340000000     0.066500000000    -0.22714    
O53      O      0.396090000000     0.883320000000     0.984320000000    -0.329512   
O54      O      0.429000000000     0.911680000000     0.947220000000    -0.226992   
O55      O      0.591370000000     0.110560000000     0.985810000000    -0.333773   
O56      O      0.557640000000     0.082750000000     0.949050000000    -0.228149   
O57      O      0.484700000000     0.901480000000     0.610940000000    -0.333067   
O58      O      0.532900000000     0.920890000000     0.587200000000    -0.222128   
O59      O      0.401910000000     0.993390000000     0.113780000000    -0.333209   
O60      O      0.429820000000     0.953500000000     0.083900000000    -0.221585   
O61      O      0.096130000000     0.508190000000     0.615950000000    -0.333556   
O62      O      0.063430000000     0.546160000000     0.588530000000    -0.223759   
O63      O      0.904790000000     0.511900000000     0.384890000000    -0.333429   
O64      O      0.936450000000     0.549850000000     0.413520000000    -0.221657   
O65      O      0.119180000000     0.019920000000     0.396780000000    -0.332991   
O66      O      0.087510000000     0.054250000000     0.429640000000    -0.22212    
O67      O      0.589430000000     0.920120000000     0.533790000000    -0.311355   
O68      O      0.614300000000     0.900570000000     0.486210000000    -0.235021   
O69      O      0.909020000000     0.619920000000     0.517030000000    -0.329472   
O70      O      0.942340000000     0.589620000000     0.552180000000    -0.222924   
O71      O      0.984960000000     0.118090000000     0.394730000000    -0.330203   
O72      O      0.949820000000     0.087650000000     0.427910000000    -0.227307   


