data_structure

_audit_creation_method RASPA-1.0
_audit_creation_date 2023-6-5
_audit_author_name 'Poobodin Mano'

_cell_length_a    63.7011
_cell_length_b    63.7223
_cell_length_c    38.4623
_cell_angle_alpha 89.9349
_cell_angle_beta  90.0646
_cell_angle_gamma 119.943
_cell_volume      135286

_symmetry_cell_setting          triclinic
_symmetry_space_group_name_Hall 'P 1'
_symmetry_space_group_name_H-M  'P 1'
_symmetry_Int_Tables_number     1

_symmetry_equiv_pos_as_xyz 'x,y,z'

loop_
_atom_site_label
_atom_site_type_symbol
_atom_site_fract_x
_atom_site_fract_y
_atom_site_fract_z
_atom_site_charge
C1       C      0.881710000000     0.687920000000     0.656280000000     0.414647   
C2       C      0.787750000000     0.641560000000     0.623060000000     0.405757   
C3       C      0.824020000000     0.662910000000     0.707130000000     0.40693    
C4       C      0.845030000000     0.666420000000     0.572290000000     0.405861   
C5       C      0.215700000000     0.861490000000     0.820080000000     0.406689   
C6       C      0.122500000000     0.810090000000     0.783890000000     0.406345   
C7       C      0.157820000000     0.826100000000     0.869240000000     0.416235   
C8       C      0.180490000000     0.845470000000     0.734840000000     0.415776   
C9       C      0.456020000000     0.987030000000     0.949540000000     0.415329   
C10      C      0.549490000000     0.031310000000     0.985210000000     0.40714    
C11      C      0.514120000000     0.011920000000     0.900190000000     0.406022   
C12      C      0.491540000000     0.006510000000     0.034750000000     0.417305   
C13      C      0.214430000000     0.353190000000     0.325500000000     0.415701   
C14      C      0.121360000000     0.310660000000     0.288040000000     0.405612   
C15      C      0.155820000000     0.328990000000     0.373800000000     0.406153   
C16      C      0.179870000000     0.334980000000     0.239770000000     0.417379   
C17      C      0.788780000000     0.150310000000     0.118450000000     0.415946   
C18      C      0.882400000000     0.197560000000     0.153860000000     0.414192   
C19      C      0.846850000000     0.183740000000     0.069090000000     0.405921   
C20      C      0.824240000000     0.163900000000     0.203340000000     0.416391   
C21      C      0.548460000000     0.522680000000     0.489760000000     0.415857   
C22      C      0.454850000000     0.473450000000     0.454870000000     0.4058     
C23      C      0.490630000000     0.489440000000     0.539680000000     0.417127   
C24      C      0.512750000000     0.506630000000     0.404980000000     0.405575   
C25      C      0.145430000000     0.357100000000     0.824190000000     0.414822   
C26      C      0.193780000000     0.311830000000     0.789020000000     0.405484   
C27      C      0.178610000000     0.332130000000     0.873990000000     0.406253   
C28      C      0.160940000000     0.336900000000     0.739340000000     0.414786   
C29      C      0.312650000000     0.192060000000     0.653350000000     0.415711   
C30      C      0.360480000000     0.146390000000     0.617590000000     0.406574   
C31      C      0.339640000000     0.160820000000     0.702710000000     0.416931   
C32      C      0.333610000000     0.177720000000     0.568100000000     0.417896   
C33      C      0.024900000000     0.477810000000     0.950470000000     0.406901   
C34      C      0.976940000000     0.523440000000     0.985430000000     0.403536   
C35      C      0.996510000000     0.507600000000     0.900400000000     0.413849   
C36      C      0.005200000000     0.493690000000     0.035370000000     0.417431   
C37      C      0.639520000000     0.851880000000     0.321610000000     0.407111   
C38      C      0.683470000000     0.802120000000     0.287570000000     0.405014   
C39      C      0.662610000000     0.817550000000     0.371990000000     0.415653   
C40      C      0.660060000000     0.836420000000     0.237170000000     0.414607   
C41      C      0.804150000000     0.682390000000     0.158340000000     0.415091   
C42      C      0.855000000000     0.639970000000     0.121590000000     0.415435   
C43      C      0.838020000000     0.657700000000     0.207200000000     0.417037   
C44      C      0.821350000000     0.664810000000     0.072820000000     0.418375   
C45      C      0.527270000000     0.979850000000     0.450790000000     0.41548    
C46      C      0.481720000000     0.028160000000     0.484860000000     0.414836   
C47      C      0.495380000000     0.005950000000     0.400390000000     0.407251   
C48      C      0.513300000000     0.001980000000     0.535120000000     0.416248   
C49      C      0.313810000000     0.123580000000     0.152670000000     0.405844   
C50      C      0.361380000000     0.217250000000     0.118050000000     0.414863   
C51      C      0.341000000000     0.181390000000     0.202810000000     0.407004   
C52      C      0.334040000000     0.159330000000     0.068020000000     0.406181   
C53      C      0.479360000000     0.457990000000     0.990170000000     0.405739   
C54      C      0.526320000000     0.551520000000     0.955050000000     0.4053     
C55      C      0.511730000000     0.515900000000     0.039940000000     0.414516   
C56      C      0.493780000000     0.493530000000     0.905410000000     0.406159   
C57      C      0.195680000000     0.883990000000     0.284530000000     0.414326   
C58      C      0.147450000000     0.790390000000     0.319820000000     0.415048   
C59      C      0.161400000000     0.826080000000     0.234990000000     0.406538   
C60      C      0.181510000000     0.848260000000     0.369230000000     0.404643   
C61      C      0.026010000000     0.550440000000     0.450450000000     0.405828   
C62      C      0.980150000000     0.457060000000     0.486310000000     0.403706   
C63      C      0.000230000000     0.492230000000     0.401230000000     0.410102   
C64      C      0.006000000000     0.515090000000     0.535600000000     0.408462   
C65      C      0.860950000000     0.217370000000     0.618090000000     0.415369   
C66      C      0.811710000000     0.124120000000     0.654750000000     0.407223   
C67      C      0.827020000000     0.159160000000     0.569350000000     0.405537   
C68      C      0.845630000000     0.182380000000     0.703600000000     0.416625   
C69      C      0.642450000000     0.791040000000     0.822780000000     0.414842   
C70      C      0.688120000000     0.884540000000     0.786830000000     0.41428    
C71      C      0.668470000000     0.849300000000     0.871980000000     0.406351   
C72      C      0.662210000000     0.826130000000     0.737620000000     0.406039   
C73      C      0.699630000000     0.944390000000     0.756840000000    -0.16466    
C74      C      0.811220000000     0.087600000000     0.669830000000     0.074349   
C75      C      0.775130000000     0.089610000000     0.673700000000     0.0735719  
C76      C      0.799250000000     0.063970000000     0.682780000000    -0.0922351  
C77      C      0.773010000000     0.021140000000     0.731940000000    -0.0378212  
C78      C      0.760890000000     0.997850000000     0.746170000000    -0.0294005  
C79      C      0.761860000000     0.028070000000     0.706380000000    -0.00409353 
C80      C      0.762570000000     0.065940000000     0.686520000000    -0.0923109  
C81      C      0.737370000000     0.980900000000     0.735080000000    -0.0183681  
C82      C      0.736920000000     0.943580000000     0.757240000000    -0.111912   
C83      C      0.726260000000     0.987850000000     0.709440000000    -0.0290567  
C84      C      0.724440000000     0.920000000000     0.770260000000     0.082451   
C85      C      0.687530000000     0.920730000000     0.769940000000     0.242905   
C86      C      0.738340000000     0.011180000000     0.695330000000    -0.0376787  
C87      C      0.774680000000     0.052920000000     0.691560000000     0.0496285  
C88      C      0.724510000000     0.956020000000     0.749990000000     0.0810165  
C89      C      0.909760000000     0.276710000000     0.587270000000    -0.165137   
C90      C      0.943800000000     0.421120000000     0.502090000000     0.0724042  
C91      C      0.981370000000     0.421890000000     0.504290000000     0.0703037  
C92      C      0.931810000000     0.397470000000     0.515000000000    -0.0921875  
C93      C      0.909530000000     0.343310000000     0.526040000000    -0.0379912  
C94      C      0.897920000000     0.320000000000     0.540240000000    -0.029541   
C95      C      0.932590000000     0.360900000000     0.537890000000    -0.00413377 
C96      C      0.969940000000     0.398240000000     0.517120000000    -0.091737   
C97      C      0.909120000000     0.313710000000     0.566540000000    -0.018813   
C98      C      0.872160000000     0.276880000000     0.588990000000    -0.112405   
C99      C      0.932160000000     0.331260000000     0.578380000000    -0.0292292  
C100     C      0.860790000000     0.253260000000     0.601880000000     0.0827447  
C101     C      0.897870000000     0.252900000000     0.599850000000     0.24282    
C102     C      0.943740000000     0.354600000000     0.564290000000    -0.0378456  
C103     C      0.944900000000     0.385780000000     0.523010000000     0.0485112  
C104     C      0.896880000000     0.288840000000     0.581270000000     0.0813334  
C105     C      0.134590000000     0.729620000000     0.347350000000    -0.165353   
C106     C      0.024750000000     0.585670000000     0.432860000000     0.0727439  
C107     C      0.062280000000     0.586300000000     0.434180000000     0.0728474  
C108     C      0.036120000000     0.609320000000     0.419990000000    -0.0926831  
C109     C      0.067970000000     0.663990000000     0.410530000000    -0.0380249  
C110     C      0.079670000000     0.687330000000     0.396400000000    -0.0294199  
C111     C      0.073290000000     0.646360000000     0.398410000000    -0.0043426  
C112     C      0.074180000000     0.609900000000     0.421070000000    -0.0927493  
C113     C      0.096850000000     0.693530000000     0.369690000000    -0.0185943  
C114     C      0.098130000000     0.731880000000     0.350400000000    -0.111824   
C115     C      0.101890000000     0.675750000000     0.357300000000    -0.0290122  
C116     C      0.110980000000     0.755650000000     0.338040000000     0.0825642  
C117     C      0.147090000000     0.753470000000     0.335090000000     0.243312   
C118     C      0.090310000000     0.652480000000     0.371560000000    -0.0377617  
C119     C      0.061070000000     0.621610000000     0.413520000000     0.0492452  
C120     C      0.109940000000     0.718590000000     0.355450000000     0.0813739  
C121     C      0.594810000000     0.730670000000     0.851970000000    -0.164843   
C122     C      0.562420000000     0.586750000000     0.936490000000     0.0725032  
C123     C      0.525620000000     0.587450000000     0.940010000000     0.0725408  
C124     C      0.574400000000     0.610410000000     0.923610000000    -0.0925747  
C125     C      0.596970000000     0.665090000000     0.914200000000    -0.0380217  
C126     C      0.608270000000     0.688380000000     0.899930000000    -0.0288978  
C127     C      0.573740000000     0.647460000000     0.903060000000    -0.00415803 
C128     C      0.537000000000     0.611040000000     0.926940000000    -0.0927579  
C129     C      0.596660000000     0.694540000000     0.874030000000    -0.0185073  
C130     C      0.633360000000     0.732470000000     0.852990000000    -0.111913   
C131     C      0.573520000000     0.676780000000     0.862670000000    -0.0288787  
C132     C      0.644150000000     0.756120000000     0.840220000000     0.0824283  
C133     C      0.606010000000     0.754320000000     0.838880000000     0.243046   
C134     C      0.562180000000     0.653550000000     0.877080000000    -0.0379711  
C135     C      0.561610000000     0.622730000000     0.918250000000     0.0490502  
C136     C      0.608430000000     0.719490000000     0.859370000000     0.0812701  
C137     C      0.243780000000     0.943410000000     0.253020000000    -0.164835   
C138     C      0.277180000000     0.087920000000     0.168580000000     0.0726853  
C139     C      0.314370000000     0.087890000000     0.169500000000     0.0730002  
C140     C      0.264940000000     0.064180000000     0.181190000000    -0.0926215  
C141     C      0.248030000000     0.020720000000     0.229480000000    -0.0379566  
C142     C      0.236820000000     0.997480000000     0.243890000000    -0.0296833  
C143     C      0.265260000000     0.027130000000     0.202840000000    -0.00434011 
C144     C      0.302700000000     0.064140000000     0.181930000000    -0.0926735  
C145     C      0.242530000000     0.980080000000     0.231910000000    -0.0185148  
C146     C      0.206050000000     0.943270000000     0.255790000000    -0.112221   
C147     C      0.259630000000     0.986460000000     0.205050000000    -0.0291792  
C148     C      0.195020000000     0.919740000000     0.268990000000     0.0825684  
C149     C      0.232300000000     0.919820000000     0.266380000000     0.242955   
C150     C      0.270890000000     0.009720000000     0.190730000000    -0.037794   
C151     C      0.277730000000     0.052060000000     0.188280000000     0.0490983  
C152     C      0.230650000000     0.955320000000     0.247200000000     0.0810244  
C153     C      0.409800000000     0.277490000000     0.089500000000    -0.164653   
C154     C      0.443180000000     0.422570000000     0.008040000000     0.0727479  
C155     C      0.480150000000     0.422160000000     0.005490000000     0.0734691  
C156     C      0.431180000000     0.398830000000     0.020650000000    -0.0925747  
C157     C      0.408590000000     0.344210000000     0.029280000000    -0.0380437  
C158     C      0.397150000000     0.320760000000     0.042980000000    -0.0296306  
C159     C      0.431780000000     0.361660000000     0.040820000000    -0.00432363 
C160     C      0.468740000000     0.398470000000     0.018200000000    -0.0924457  
C161     C      0.408590000000     0.314230000000     0.068660000000    -0.0186077  
C162     C      0.371640000000     0.276520000000     0.089360000000    -0.112232   
C163     C      0.431730000000     0.331740000000     0.080320000000    -0.0290832  
C164     C      0.360500000000     0.252740000000     0.101580000000     0.0827062  
C165     C      0.398180000000     0.253560000000     0.101630000000     0.242918   
C166     C      0.443200000000     0.355160000000     0.066520000000    -0.037742   
C167     C      0.444010000000     0.386580000000     0.026240000000     0.0492184  
C168     C      0.396550000000     0.289150000000     0.082840000000     0.0811326  
C169     C      0.641340000000     0.795120000000     0.460680000000    -0.166459   
C170     C      0.681080000000     0.823500000000     0.685680000000     0.0731321  
C171     C      0.640330000000     0.814780000000     0.684230000000     0.0736661  
C172     C      0.680910000000     0.820430000000     0.649710000000    -0.0919007  
C173     C      0.674390000000     0.804510000000     0.574700000000    -0.0377504  
C174     C      0.675130000000     0.803870000000     0.538370000000    -0.0297594  
C175     C      0.659800000000     0.812250000000     0.591650000000    -0.00396575 
C176     C      0.639330000000     0.810970000000     0.648370000000    -0.0917727  
C177     C      0.660880000000     0.810350000000     0.518310000000    -0.0196697  
C178     C      0.683090000000     0.826550000000     0.462610000000    -0.113527   
C179     C      0.645930000000     0.817540000000     0.534910000000    -0.0289955  
C180     C      0.683000000000     0.828170000000     0.426410000000     0.0828023  
C181     C      0.641890000000     0.796610000000     0.424350000000     0.243166   
C182     C      0.645590000000     0.818750000000     0.571130000000    -0.0372393  
C183     C      0.659930000000     0.814300000000     0.630370000000     0.0489518  
C184     C      0.661930000000     0.810330000000     0.480020000000     0.0825425  
C185     C      0.643450000000     0.828260000000     0.144280000000    -0.164785   
C186     C      0.687070000000     0.853550000000     0.927240000000     0.0732324  
C187     C      0.651870000000     0.857080000000     0.922590000000     0.0735212  
C188     C      0.686870000000     0.855530000000     0.963360000000    -0.0919989  
C189     C      0.687950000000     0.868330000000     0.039110000000    -0.0378824  
C190     C      0.686280000000     0.866200000000     0.075310000000    -0.0292961  
C191     C      0.666950000000     0.858110000000     0.018360000000    -0.00373473 
C192     C      0.651340000000     0.859480000000     0.958640000000    -0.0916788  
C193     C      0.663560000000     0.854060000000     0.091810000000    -0.0182142  
C194     C      0.678780000000     0.867250000000     0.152870000000    -0.111747   
C195     C      0.642570000000     0.844800000000     0.071140000000    -0.0288746  
C196     C      0.677630000000     0.862350000000     0.188440000000     0.0828292  
C197     C      0.642600000000     0.823850000000     0.180040000000     0.243412   
C198     C      0.644230000000     0.846630000000     0.034940000000    -0.0374041  
C199     C      0.668630000000     0.858150000000     0.979680000000     0.0489346  
C200     C      0.661760000000     0.849990000000     0.130150000000     0.0810441  
C201     C      0.754220000000     0.691650000000     0.187790000000    -0.164991   
C202     C      0.719540000000     0.801460000000     0.273500000000     0.0723623  
C203     C      0.681520000000     0.765370000000     0.269670000000     0.0718962  
C204     C      0.731300000000     0.789390000000     0.261360000000    -0.0927611  
C205     C      0.752730000000     0.756720000000     0.251870000000    -0.0379771  
C206     C      0.764570000000     0.745180000000     0.237920000000    -0.02927    
C207     C      0.730110000000     0.751860000000     0.238810000000    -0.00424154 
C208     C      0.692720000000     0.752710000000     0.257510000000    -0.092537   
C209     C      0.754040000000     0.728440000000     0.210630000000    -0.018661   
C210     C      0.791710000000     0.729450000000     0.189370000000    -0.112201   
C211     C      0.731320000000     0.723370000000     0.197790000000    -0.0289897  
C212     C      0.803570000000     0.717770000000     0.176200000000     0.0834416  
C213     C      0.766550000000     0.680330000000     0.174570000000     0.24321    
C214     C      0.719510000000     0.734970000000     0.211680000000    -0.0378481  
C215     C      0.717890000000     0.764750000000     0.252910000000     0.048747   
C216     C      0.766790000000     0.716370000000     0.195660000000     0.0815861  
C217     C      0.574340000000     0.966290000000     0.421430000000    -0.165105   
C218     C      0.603620000000     0.852800000000     0.336180000000     0.0744757  
C219     C      0.641840000000     0.888670000000     0.339950000000     0.073956   
C220     C      0.592140000000     0.865020000000     0.348980000000    -0.0914506  
C221     C      0.571410000000     0.898300000000     0.360380000000    -0.0376446  
C222     C      0.560440000000     0.910660000000     0.374470000000    -0.0286411  
C223     C      0.594070000000     0.902720000000     0.372650000000    -0.00364404 
C224     C      0.630940000000     0.901440000000     0.352650000000    -0.0922186  
C225     C      0.571920000000     0.927810000000     0.401040000000    -0.0186208  
C226     C      0.535790000000     0.929610000000     0.422910000000    -0.112445   
C227     C      0.594510000000     0.932170000000     0.413410000000    -0.0286504  
C228     C      0.525290000000     0.942780000000     0.435510000000     0.0831673  
C229     C      0.563380000000     0.979110000000     0.434020000000     0.244314   
C230     C      0.605430000000     0.919740000000     0.399450000000    -0.0374967  
C231     C      0.605820000000     0.889590000000     0.357750000000     0.0495663  
C232     C      0.560540000000     0.941370000000     0.415420000000     0.0821589  
C233     C      0.978350000000     0.494740000000     0.808430000000    -0.165532   
C234     C      0.024350000000     0.518790000000     0.590870000000     0.0737931  
C235     C      0.988970000000     0.522110000000     0.586410000000     0.0721835  
C236     C      0.023730000000     0.519970000000     0.627040000000    -0.0946813  
C237     C      0.001120000000     0.538760000000     0.700240000000    -0.034629   
C238     C      0.999040000000     0.537340000000     0.736510000000    -0.0335693  
C239     C      0.003000000000     0.520870000000     0.681500000000    -0.00737382 
C240     C      0.988100000000     0.523810000000     0.622550000000    -0.0957769  
C241     C      0.998220000000     0.517690000000     0.754360000000    -0.0173191  
C242     C      0.012680000000     0.534840000000     0.813620000000    -0.111035   
C243     C      0.999830000000     0.499710000000     0.735500000000    -0.0327344  
C244     C      0.012010000000     0.531790000000     0.849620000000     0.0836229  
C245     C      0.977700000000     0.492350000000     0.844630000000     0.242541   
C246     C      0.002410000000     0.501390000000     0.699440000000    -0.0341937  
C247     C      0.005240000000     0.522080000000     0.643210000000     0.0525752  
C248     C      0.996130000000     0.515940000000     0.792640000000     0.0794183  
C249     C      0.023640000000     0.506040000000     0.127390000000    -0.165128   
C250     C      0.981610000000     0.487250000000     0.345800000000     0.073582   
C251     C      0.017040000000     0.484170000000     0.351180000000     0.075122   
C252     C      0.981770000000     0.484660000000     0.309770000000    -0.094708   
C253     C      0.980450000000     0.469680000000     0.234940000000    -0.039123   
C254     C      0.981890000000     0.470460000000     0.198670000000    -0.0307404  
C255     C      0.001580000000     0.481000000000     0.255360000000    -0.00293883 
C256     C      0.017550000000     0.481200000000     0.315300000000    -0.0936051  
C257     C      0.004510000000     0.482340000000     0.181830000000    -0.0170322  
C258     C      0.989130000000     0.466110000000     0.121940000000    -0.113775   
C259     C      0.025640000000     0.492900000000     0.202270000000    -0.029072   
C260     C      0.989630000000     0.469430000000     0.086030000000     0.0822443  
C261     C      0.023830000000     0.508870000000     0.091270000000     0.243986   
C262     C      0.024200000000     0.492380000000     0.238520000000    -0.0374207  
C263     C      0.000090000000     0.481940000000     0.293940000000     0.0512148  
C264     C      0.005960000000     0.484690000000     0.143250000000     0.0827575  
C265     C      0.904340000000     0.630620000000     0.089720000000    -0.164893   
C266     C      0.940220000000     0.522090000000     0.001910000000     0.0720855  
C267     C      0.977190000000     0.559460000000     0.002750000000     0.0718022  
C268     C      0.927840000000     0.533320000000     0.015030000000    -0.0927963  
C269     C      0.910650000000     0.558910000000     0.064320000000    -0.038034   
C270     C      0.899050000000     0.570430000000     0.079160000000    -0.0295174  
C271     C      0.927810000000     0.570220000000     0.037720000000    -0.00441556 
C272     C      0.965370000000     0.571260000000     0.015740000000    -0.0928451  
C273     C      0.904300000000     0.593510000000     0.067700000000    -0.0186154  
C274     C      0.867150000000     0.592540000000     0.091400000000    -0.112141   
C275     C      0.921430000000     0.604780000000     0.041010000000    -0.0291218  
C276     C      0.855500000000     0.604350000000     0.104910000000     0.0828819  
C277     C      0.892250000000     0.642040000000     0.103420000000     0.243624   
C278     C      0.933070000000     0.593290000000     0.026230000000    -0.0379361  
C279     C      0.940460000000     0.558150000000     0.022440000000     0.048804   
C280     C      0.891800000000     0.605690000000     0.083240000000     0.0813282  
C281     C      0.323850000000     0.134220000000     0.790640000000    -0.166136   
C282     C      0.350170000000     0.151490000000     0.016960000000     0.072759   
C283     C      0.315330000000     0.155780000000     0.013050000000     0.0728195  
C284     C      0.350500000000     0.149250000000     0.980860000000    -0.0933712  
C285     C      0.335130000000     0.170430000000     0.903300000000    -0.0382915  
C286     C      0.337200000000     0.171290000000     0.867160000000    -0.0295442  
C287     C      0.334910000000     0.151420000000     0.922090000000    -0.00487949 
C288     C      0.315410000000     0.154050000000     0.976900000000    -0.0937082  
C289     C      0.338690000000     0.152950000000     0.849080000000    -0.0198159  
C290     C      0.357480000000     0.174860000000     0.793910000000    -0.113643   
C291     C      0.338230000000     0.133780000000     0.867780000000    -0.0291647  
C292     C      0.357510000000     0.176260000000     0.757740000000     0.0832338  
C293     C      0.323840000000     0.136300000000     0.754370000000     0.243273   
C294     C      0.336630000000     0.133170000000     0.904100000000    -0.0380694  
C295     C      0.333340000000     0.151110000000     0.960450000000     0.0496231  
C296     C      0.340290000000     0.153840000000     0.810710000000     0.082279   
C297     C      0.349420000000     0.204650000000     0.480390000000    -0.165935   
C298     C      0.359420000000     0.184560000000     0.257910000000     0.073941   
C299     C      0.324710000000     0.189060000000     0.253840000000     0.0735856  
C300     C      0.359110000000     0.185990000000     0.294090000000    -0.0932976  
C301     C      0.338950000000     0.169110000000     0.367390000000    -0.037988   
C302     C      0.336620000000     0.167970000000     0.403500000000    -0.0292818  
C303     C      0.339270000000     0.188240000000     0.348810000000    -0.00466274 
C304     C      0.324140000000     0.191000000000     0.289950000000    -0.0932955  
C305     C      0.334950000000     0.186140000000     0.421770000000    -0.019532   
C306     C      0.316120000000     0.163860000000     0.476750000000    -0.113224   
C307     C      0.335480000000     0.205420000000     0.403280000000    -0.0289563  
C308     C      0.315980000000     0.162340000000     0.512920000000     0.0844375  
C309     C      0.349330000000     0.202460000000     0.516650000000     0.244465   
C310     C      0.337350000000     0.206320000000     0.367000000000    -0.0378915  
C311     C      0.341120000000     0.188870000000     0.310460000000     0.0500252  
C312     C      0.333210000000     0.185030000000     0.460140000000     0.0828481  
C313     C      0.470740000000     0.077110000000     0.513550000000    -0.165355   
C314     C      0.360080000000     0.110430000000     0.599650000000     0.0734812  
C315     C      0.397220000000     0.147610000000     0.601510000000     0.0728346  
C316     C      0.371850000000     0.098600000000     0.586620000000    -0.0923505  
C317     C      0.398440000000     0.081950000000     0.538940000000    -0.0380005  
C318     C      0.410280000000     0.070510000000     0.524660000000    -0.0290271  
C319     C      0.409490000000     0.099410000000     0.565290000000    -0.00399769 
C320     C      0.409560000000     0.136340000000     0.588400000000    -0.0922776  
C321     C      0.433490000000     0.076330000000     0.536270000000    -0.0189088  
C322     C      0.433490000000     0.039080000000     0.515300000000    -0.112372   
C323     C      0.444580000000     0.093830000000     0.562520000000    -0.0289531  
C324     C      0.445760000000     0.027680000000     0.502550000000     0.0825763  
C325     C      0.482650000000     0.065250000000     0.500840000000     0.242671   
C326     C      0.432710000000     0.105210000000     0.576900000000    -0.0379256  
C327     C      0.396850000000     0.111580000000     0.580430000000     0.0490555  
C328     C      0.446020000000     0.064040000000     0.521350000000     0.0814386  
C329     C      0.096970000000     0.368380000000     0.854320000000    -0.164854   
C330     C      0.061690000000     0.479020000000     0.934750000000     0.0739386  
C331     C      0.024710000000     0.441660000000     0.934130000000     0.0744989  
C332     C      0.074160000000     0.467620000000     0.922630000000    -0.0921444  
C333     C      0.091920000000     0.441130000000     0.875880000000    -0.0375948  
C334     C      0.103490000000     0.429210000000     0.862280000000    -0.0293253  
C335     C      0.074380000000     0.430310000000     0.902160000000    -0.00398829 
C336     C      0.036620000000     0.429690000000     0.922160000000    -0.0921089  
C337     C      0.097820000000     0.406200000000     0.874690000000    -0.0183195  
C338     C      0.134680000000     0.405930000000     0.852160000000    -0.11176    
C339     C      0.080430000000     0.395490000000     0.901190000000    -0.0289673  
C340     C      0.145910000000     0.393460000000     0.839510000000     0.0830617  
C341     C      0.108630000000     0.356300000000     0.841490000000     0.243428   
C342     C      0.068830000000     0.407390000000     0.914720000000    -0.0375223  
C343     C      0.061610000000     0.442690000000     0.915980000000     0.0497495  
C344     C      0.109970000000     0.393370000000     0.860130000000     0.0814106  
C345     C      0.264150000000     0.203410000000     0.683240000000    -0.164609   
C346     C      0.230160000000     0.313210000000     0.770500000000     0.0722115  
C347     C      0.193490000000     0.275610000000     0.772950000000     0.0726437  
C348     C      0.242330000000     0.301850000000     0.757130000000    -0.0926591  
C349     C      0.265350000000     0.270270000000     0.746370000000    -0.0381458  
C350     C      0.276830000000     0.258570000000     0.731730000000    -0.0294455  
C351     C      0.242040000000     0.264560000000     0.735410000000    -0.00429327 
C352     C      0.205060000000     0.263700000000     0.759470000000    -0.0928595  
C353     C      0.265320000000     0.240970000000     0.705670000000    -0.0185957  
C354     C      0.302260000000     0.240590000000     0.683880000000    -0.111829   
C355     C      0.242070000000     0.235420000000     0.694560000000    -0.0289081  
C356     C      0.313430000000     0.228160000000     0.670910000000     0.0834664  
C357     C      0.275800000000     0.191320000000     0.670350000000     0.242932   
C358     C      0.230550000000     0.247040000000     0.709300000000    -0.0378385  
C359     C      0.229710000000     0.276840000000     0.751030000000     0.0489181  
C360     C      0.277370000000     0.228210000000     0.690570000000     0.0812755  
C361     C      0.488040000000     0.467860000000     0.629390000000    -0.164271   
C362     C      0.471680000000     0.491180000000     0.854200000000     0.0729269  
C363     C      0.504400000000     0.483420000000     0.851060000000     0.0730204  
C364     C      0.468690000000     0.488840000000     0.818190000000    -0.093941   
C365     C      0.487570000000     0.503920000000     0.741630000000    -0.0381348  
C366     C      0.487220000000     0.503810000000     0.705330000000    -0.0287181  
C367     C      0.482110000000     0.482850000000     0.760090000000    -0.00472175 
C368     C      0.501500000000     0.480370000000     0.815060000000    -0.0934639  
C369     C      0.480870000000     0.482430000000     0.686670000000    -0.0181263  
C370     C      0.476440000000     0.498380000000     0.628770000000    -0.111362   
C371     C      0.474800000000     0.461150000000     0.705530000000    -0.0286644  
C372     C      0.479230000000     0.499960000000     0.592720000000     0.0838929  
C373     C      0.490020000000     0.469290000000     0.593100000000     0.243491   
C374     C      0.475730000000     0.461460000000     0.741880000000    -0.0384659  
C375     C      0.483820000000     0.483570000000     0.798340000000     0.049767   
C376     C      0.481470000000     0.482670000000     0.647830000000     0.0811107  
C377     C      0.538720000000     0.525780000000     0.127480000000    -0.165601   
C378     C      0.517060000000     0.492560000000     0.349600000000     0.0729868  
C379     C      0.520220000000     0.531140000000     0.354510000000     0.0726764  
C380     C      0.518980000000     0.494890000000     0.313500000000    -0.0933837  
C381     C      0.502660000000     0.498750000000     0.239980000000    -0.0380024  
C382     C      0.501900000000     0.500440000000     0.203890000000    -0.0287333  
C383     C      0.521330000000     0.517490000000     0.259230000000    -0.00455359 
C384     C      0.522650000000     0.534240000000     0.318470000000    -0.0930813  
C385     C      0.520020000000     0.520700000000     0.186280000000    -0.0194702  
C386     C      0.497940000000     0.518380000000     0.131600000000    -0.113589   
C387     C      0.538920000000     0.539340000000     0.205410000000    -0.0290359  
C388     C      0.496440000000     0.517610000000     0.095430000000     0.0833061  
C389     C      0.536630000000     0.524560000000     0.091160000000     0.243054   
C390     C      0.539410000000     0.537880000000     0.241700000000    -0.0382146  
C391     C      0.521460000000     0.515740000000     0.297570000000     0.0496319  
C392     C      0.519060000000     0.522050000000     0.147970000000     0.0823825  
C393     C      0.868460000000     0.186440000000     0.792910000000    -0.164117   
C394     C      0.848410000000     0.205790000000     0.018170000000     0.0736795  
C395     C      0.857180000000     0.173800000000     0.014430000000     0.0732815  
C396     C      0.850360000000     0.208780000000     0.982110000000    -0.0933047  
C397     C      0.834830000000     0.190160000000     0.905790000000    -0.0381979  
C398     C      0.834290000000     0.189790000000     0.869490000000    -0.0284722  
C399     C      0.856110000000     0.195480000000     0.923640000000    -0.00440582 
C400     C      0.859880000000     0.176720000000     0.978420000000    -0.0934274  
C401     C      0.855210000000     0.195290000000     0.850140000000    -0.0181826  
C402     C      0.838310000000     0.198540000000     0.792340000000    -0.111462   
C403     C      0.876730000000     0.201350000000     0.868360000000    -0.0284727  
C404     C      0.836070000000     0.194930000000     0.756440000000     0.0835233  
C405     C      0.866380000000     0.183640000000     0.756730000000     0.243677   
C406     C      0.877070000000     0.201120000000     0.904730000000    -0.0384806  
C407     C      0.855930000000     0.194000000000     0.961930000000     0.0498173  
C408     C      0.854210000000     0.193720000000     0.811340000000     0.08105    
C409     C      0.812350000000     0.134680000000     0.289570000000    -0.164438   
C410     C      0.840310000000     0.154050000000     0.513780000000     0.0725555  
C411     C      0.802280000000     0.151970000000     0.519240000000     0.0726902  
C412     C      0.837580000000     0.151730000000     0.477730000000    -0.0922243  
C413     C      0.803620000000     0.160780000000     0.406410000000    -0.0374692  
C414     C      0.802870000000     0.161550000000     0.370140000000    -0.0289752  
C415     C      0.814440000000     0.148940000000     0.423250000000    -0.00383111 
C416     C      0.798810000000     0.149300000000     0.483280000000    -0.0921772  
C417     C      0.813180000000     0.150750000000     0.349650000000    -0.0180026  
C418     C      0.818040000000     0.174700000000     0.295280000000    -0.111126   
C419     C      0.823480000000     0.138410000000     0.366480000000    -0.0287547  
C420     C      0.820500000000     0.177410000000     0.259270000000     0.0835311  
C421     C      0.815370000000     0.138030000000     0.253530000000     0.2431     
C422     C      0.823960000000     0.137390000000     0.402750000000    -0.037801   
C423     C      0.816790000000     0.149650000000     0.461870000000     0.0487327  
C424     C      0.814220000000     0.153270000000     0.311030000000     0.0810925  
C425     C      0.170980000000     0.353900000000     0.646640000000    -0.164914   
C426     C      0.150460000000     0.310270000000     0.429250000000     0.0734724  
C427     C      0.147490000000     0.345730000000     0.423690000000     0.0733092  
C428     C      0.147780000000     0.310450000000     0.465270000000    -0.0914127  
C429     C      0.133470000000     0.309440000000     0.540400000000    -0.0375553  
C430     C      0.134670000000     0.311100000000     0.576670000000    -0.0292084  
C431     C      0.144270000000     0.330440000000     0.519660000000    -0.00376318 
C432     C      0.144360000000     0.346220000000     0.459550000000    -0.0921867  
C433     C      0.146430000000     0.333830000000     0.593210000000    -0.0180742  
C434     C      0.131730000000     0.318690000000     0.653880000000    -0.111598   
C435     C      0.156300000000     0.354810000000     0.572480000000    -0.0290961  
C436     C      0.135830000000     0.319780000000     0.689690000000     0.0825565  
C437     C      0.174600000000     0.354680000000     0.682610000000     0.243272   
C438     C      0.155410000000     0.353140000000     0.536250000000    -0.0372808  
C439     C      0.145060000000     0.328790000000     0.481040000000     0.0490392  
C440     C      0.149560000000     0.335640000000     0.631730000000     0.0810432  
C441     C      0.196410000000     0.357240000000     0.149900000000    -0.165203   
C442     C      0.167870000000     0.311410000000     0.928410000000     0.073661   
C443     C      0.200460000000     0.351870000000     0.925310000000     0.0733966  
C444     C      0.170530000000     0.311330000000     0.964490000000    -0.0928947  
C445     C      0.193540000000     0.317240000000     0.038850000000    -0.0386788  
C446     C      0.194250000000     0.318280000000     0.075210000000    -0.0288936  
C447     C      0.189290000000     0.333460000000     0.019620000000    -0.00435011 
C448     C      0.203210000000     0.352580000000     0.961370000000    -0.0935688  
C449     C      0.190130000000     0.335210000000     0.093090000000    -0.0185377  
C450     C      0.181190000000     0.314360000000     0.151420000000    -0.11154    
C451     C      0.185780000000     0.351340000000     0.073430000000    -0.0283618  
C452     C      0.179200000000     0.314890000000     0.187520000000     0.0830856  
C453     C      0.193470000000     0.357130000000     0.185980000000     0.243938   
C454     C      0.185650000000     0.350640000000     0.037160000000    -0.0383571  
C455     C      0.187990000000     0.332260000000     0.981290000000     0.0497401  
C456     C      0.189520000000     0.335640000000     0.131920000000     0.0809442  
C457     C      0.942340000000     0.245440000000     0.184180000000    -0.165039   
C458     C      0.084660000000     0.275100000000     0.272360000000     0.0729198  
C459     C      0.087230000000     0.313450000000     0.268920000000     0.0726616  
C460     C      0.061080000000     0.263830000000     0.259210000000    -0.0928595  
C461     C      0.007280000000     0.243360000000     0.247500000000    -0.0346253  
C462     C      0.984080000000     0.232290000000     0.232960000000    -0.0324525  
C463     C      0.025500000000     0.266050000000     0.235410000000    -0.00588279 
C464     C      0.063650000000     0.302760000000     0.255830000000    -0.092792   
C465     C      0.978520000000     0.243680000000     0.206090000000    -0.017038   
C466     C      0.941270000000     0.207230000000     0.183470000000    -0.112424   
C467     C      0.996670000000     0.266390000000     0.194060000000    -0.0324056  
C468     C      0.917740000000     0.196360000000     0.170280000000     0.0820107  
C469     C      0.918690000000     0.234100000000     0.170980000000     0.242777   
C470     C      0.019910000000     0.277420000000     0.208490000000    -0.0345313  
C471     C      0.050320000000     0.277670000000     0.250480000000     0.0497656  
C472     C      0.953770000000     0.231990000000     0.190930000000     0.0806758  
C473     C      0.273550000000     0.362630000000     0.355780000000    -0.164868   
C474     C      0.418380000000     0.473060000000     0.439730000000     0.0726691  
C475     C      0.419860000000     0.436650000000     0.437700000000     0.072695   
C476     C      0.394560000000     0.461000000000     0.427510000000    -0.0924123  
C477     C      0.340390000000     0.428560000000     0.418300000000    -0.0378678  
C478     C      0.317000000000     0.416910000000     0.404400000000    -0.0288431  
C479     C      0.358010000000     0.423310000000     0.405840000000    -0.00394136 
C480     C      0.396030000000     0.424020000000     0.425480000000    -0.0924523  
C481     C      0.310630000000     0.399680000000     0.377770000000    -0.0185423  
C482     C      0.273990000000     0.400530000000     0.355870000000    -0.112163   
C483     C      0.328150000000     0.394250000000     0.365510000000    -0.0286937  
C484     C      0.250430000000     0.388730000000     0.342730000000     0.0839497  
C485     C      0.249900000000     0.351200000000     0.342560000000     0.243499   
C486     C      0.351580000000     0.405950000000     0.379340000000    -0.0377683  
C487     C      0.383120000000     0.436220000000     0.419950000000     0.0490488  
C488     C      0.285770000000     0.387460000000     0.362880000000     0.0819709  
C489     C      0.540250000000     0.019170000000     0.622760000000    -0.165735   
C490     C      0.518480000000     0.030420000000     0.844840000000     0.0726687  
C491     C      0.521790000000     0.995070000000     0.849760000000     0.0727557  
C492     C      0.520450000000     0.030090000000     0.808740000000    -0.0936009  
C493     C      0.504200000000     0.010000000000     0.735240000000    -0.0381812  
C494     C      0.503430000000     0.007580000000     0.699150000000    -0.0296116  
C495     C      0.522910000000     0.009940000000     0.754480000000    -0.00483767 
C496     C      0.524270000000     0.994470000000     0.813730000000    -0.0933122  
C497     C      0.521580000000     0.005460000000     0.681550000000    -0.0197551  
C498     C      0.499500000000     0.985820000000     0.626860000000    -0.113747   
C499     C      0.540500000000     0.005710000000     0.700680000000    -0.0291737  
C500     C      0.498000000000     0.985160000000     0.590700000000     0.0830722  
C501     C      0.538070000000     0.018540000000     0.586440000000     0.24265    
C502     C      0.541010000000     0.007650000000     0.736970000000    -0.0381637  
C503     C      0.523030000000     0.011780000000     0.792820000000     0.0495877  
C504     C      0.520620000000     0.003200000000     0.643240000000     0.0821132  
C505     C      0.488590000000     0.025230000000     0.124410000000    -0.164263   
C506     C      0.472930000000     0.986250000000     0.349440000000     0.0738475  
C507     C      0.506190000000     0.026330000000     0.345750000000     0.0748852  
C508     C      0.469820000000     0.985490000000     0.313430000000    -0.0937809  
C509     C      0.489060000000     0.989140000000     0.236690000000    -0.0381453  
C510     C      0.488580000000     0.988840000000     0.200400000000    -0.0283687  
C511     C      0.483290000000     0.004530000000     0.255120000000    -0.00425765 
C512     C      0.503200000000     0.026380000000     0.309760000000    -0.0927546  
C513     C      0.481790000000     0.003570000000     0.181720000000    -0.0180583  
C514     C      0.477570000000     0.983290000000     0.123860000000    -0.111655   
C515     C      0.475410000000     0.018530000000     0.200560000000    -0.0281846  
C516     C      0.480330000000     0.984550000000     0.087810000000     0.0836913  
C517     C      0.490580000000     0.025840000000     0.088130000000     0.243954   
C518     C      0.476450000000     0.019210000000     0.236900000000    -0.0381617  
C519     C      0.485160000000     0.005640000000     0.293330000000     0.0504926  
C520     C      0.482330000000     0.003940000000     0.142880000000     0.0815203  
C521     C      0.728390000000     0.138240000000     0.090200000000    -0.165492   
C522     C      0.584400000000     0.029440000000     0.002910000000     0.0737425  
C523     C      0.585810000000     0.067290000000     0.000840000000     0.0744804  
C524     C      0.608140000000     0.040570000000     0.015470000000    -0.0922726  
C525     C      0.652380000000     0.066310000000     0.061800000000    -0.0372705  
C526     C      0.675670000000     0.077930000000     0.076100000000    -0.0292127  
C527     C      0.645930000000     0.077720000000     0.035940000000    -0.00390704 
C528     C      0.609490000000     0.078970000000     0.013580000000    -0.0918456  
C529     C      0.692990000000     0.101290000000     0.065090000000    -0.0185936  
C530     C      0.730600000000     0.101810000000     0.085620000000    -0.11212    
C531     C      0.686640000000     0.112660000000     0.039140000000    -0.0289856  
C532     C      0.754130000000     0.114280000000     0.098910000000     0.0836962  
C533     C      0.751880000000     0.150250000000     0.103920000000     0.243747   
C534     C      0.663430000000     0.100980000000     0.024640000000    -0.0374064  
C535     C      0.620950000000     0.065620000000     0.021320000000     0.0496326  
C536     C      0.717600000000     0.113890000000     0.080620000000     0.0821763  
C537     C      0.184030000000     0.868500000000     0.645770000000    -0.164065   
C538     C      0.203640000000     0.849640000000     0.420010000000     0.071939   
C539     C      0.171660000000     0.858430000000     0.424090000000     0.0725715  
C540     C      0.206650000000     0.851450000000     0.456090000000    -0.0937013  
C541     C      0.188460000000     0.835780000000     0.532390000000    -0.0383584  
C542     C      0.188070000000     0.835060000000     0.568690000000    -0.0289249  
C543     C      0.193410000000     0.857010000000     0.514760000000    -0.00468619 
C544     C      0.174620000000     0.861000000000     0.460110000000    -0.0934471  
C545     C      0.193170000000     0.855780000000     0.588260000000    -0.0182294  
C546     C      0.196780000000     0.838860000000     0.645840000000    -0.111423   
C547     C      0.198860000000     0.877280000000     0.570270000000    -0.0288041  
C548     C      0.193220000000     0.836420000000     0.681740000000     0.0827461  
C549     C      0.181290000000     0.866240000000     0.681960000000     0.242646   
C550     C      0.198650000000     0.877770000000     0.533900000000    -0.0385904  
C551     C      0.191900000000     0.856970000000     0.476450000000     0.049264   
C552     C      0.191620000000     0.854600000000     0.627080000000     0.0804507  
C553     C      0.155340000000     0.803600000000     0.958380000000    -0.164192   
C554     C      0.138930000000     0.824350000000     0.184460000000     0.0738162  
C555     C      0.171180000000     0.815980000000     0.179990000000     0.074536   
C556     C      0.135650000000     0.822340000000     0.148450000000    -0.09337    
C557     C      0.153220000000     0.837640000000     0.071750000000    -0.0381227  
C558     C      0.152960000000     0.837970000000     0.035440000000    -0.0284234  
C559     C      0.148470000000     0.816550000000     0.089640000000    -0.00408877 
C560     C      0.167960000000     0.813230000000     0.144000000000    -0.0924246  
C561     C      0.147380000000     0.817010000000     0.016150000000    -0.0180591  
C562     C      0.142770000000     0.833390000000     0.958660000000    -0.111468   
C563     C      0.141940000000     0.795690000000     0.034440000000    -0.0281679  
C564     C      0.145750000000     0.835490000000     0.922650000000     0.0831533  
C565     C      0.157500000000     0.805540000000     0.922110000000     0.242923   
C566     C      0.142800000000     0.795570000000     0.070790000000    -0.0383734  
C567     C      0.150390000000     0.816920000000     0.127910000000     0.0501335  
C568     C      0.148190000000     0.817780000000     0.977280000000     0.080829   
C569     C      0.396290000000     0.976110000000     0.919490000000    -0.16497    
C570     C      0.252780000000     0.863140000000     0.835070000000     0.0740531  
C571     C      0.249790000000     0.898690000000     0.838350000000     0.0732262  
C572     C      0.276520000000     0.875720000000     0.847540000000    -0.0920209  
C573     C      0.330340000000     0.909280000000     0.857410000000    -0.0377765  
C574     C      0.353700000000     0.921400000000     0.871380000000    -0.0295387  
C575     C      0.312260000000     0.913830000000     0.869960000000    -0.00403784 
C576     C      0.273540000000     0.911850000000     0.850760000000    -0.0922034  
C577     C      0.359610000000     0.938460000000     0.898120000000    -0.0187204  
C578     C      0.396680000000     0.938630000000     0.920240000000    -0.112538   
C579     C      0.341660000000     0.943250000000     0.910450000000    -0.0290414  
C580     C      0.420300000000     0.950950000000     0.933120000000     0.0828891  
C581     C      0.420140000000     0.988140000000     0.932020000000     0.242499   
C582     C      0.318240000000     0.931030000000     0.896600000000    -0.0373848  
C583     C      0.287190000000     0.900360000000     0.855780000000     0.0493617  
C584     C      0.384460000000     0.951220000000     0.912960000000     0.0814696  
C585     C      0.828210000000     0.687680000000     0.983120000000    -0.165332   
C586     C      0.814050000000     0.642410000000     0.761720000000     0.0732454  
C587     C      0.821770000000     0.682830000000     0.758130000000     0.0738851  
C588     C      0.811000000000     0.642370000000     0.797700000000    -0.0932976  
C589     C      0.792730000000     0.648230000000     0.871080000000    -0.0385866  
C590     C      0.792500000000     0.649170000000     0.907410000000    -0.0288273  
C591     C      0.813500000000     0.664440000000     0.852480000000    -0.00442188 
C592     C      0.819420000000     0.683590000000     0.794110000000    -0.0932933  
C593     C      0.813280000000     0.665970000000     0.925910000000    -0.0184502  
C594     C      0.800520000000     0.644800000000     0.983900000000    -0.111449   
C595     C      0.834050000000     0.682120000000     0.906890000000    -0.028222   
C596     C      0.802550000000     0.645100000000     0.020050000000     0.0837399  
C597     C      0.830550000000     0.687330000000     0.019270000000     0.245215   
C598     C      0.834040000000     0.681530000000     0.870620000000    -0.0382673  
C599     C      0.814180000000     0.663280000000     0.814220000000     0.0498274  
C600     C      0.813740000000     0.666190000000     0.964750000000     0.0814153  
C601     C      0.864960000000     0.672650000000     0.294970000000    -0.165993   
C602     C      0.847610000000     0.683630000000     0.516430000000     0.0727358  
C603     C      0.851540000000     0.648660000000     0.521850000000     0.0723883  
C604     C      0.848370000000     0.682440000000     0.480280000000    -0.0936838  
C605     C      0.829830000000     0.660470000000     0.408190000000    -0.0381265  
C606     C      0.828410000000     0.658120000000     0.372080000000    -0.0295553  
C607     C      0.849360000000     0.661300000000     0.426330000000    -0.00500747 
C608     C      0.852830000000     0.647230000000     0.485710000000    -0.0933351  
C609     C      0.846720000000     0.656960000000     0.353370000000    -0.0196614  
C610     C      0.824560000000     0.638590000000     0.298090000000    -0.113029   
C611     C      0.866310000000     0.657820000000     0.371470000000    -0.0294038  
C612     C      0.822950000000     0.639030000000     0.261960000000     0.0838392  
C613     C      0.862660000000     0.673120000000     0.258790000000     0.243544   
C614     C      0.867470000000     0.659680000000     0.407760000000    -0.0382892  
C615     C      0.850620000000     0.663890000000     0.464590000000     0.049449   
C616     C      0.845580000000     0.655740000000     0.314960000000     0.082267   
C617     C      0.607800000000     0.571410000000     0.520560000000    -0.16466    
C618     C      0.751750000000     0.605110000000     0.607820000000     0.0727398  
C619     C      0.752390000000     0.642610000000     0.605510000000     0.0726438  
C620     C      0.728080000000     0.593050000000     0.594960000000    -0.0927563  
C621     C      0.685200000000     0.576150000000     0.545790000000    -0.0378301  
C622     C      0.662000000000     0.564790000000     0.531200000000    -0.0294765  
C623     C      0.691540000000     0.593710000000     0.571930000000    -0.00436283 
C624     C      0.728690000000     0.631100000000     0.592790000000    -0.0927546  
C625     C      0.644570000000     0.570670000000     0.542480000000    -0.0182573  
C626     C      0.607860000000     0.533760000000     0.519310000000    -0.111429   
C627     C      0.650920000000     0.588180000000     0.568740000000    -0.0290226  
C628     C      0.584330000000     0.522440000000     0.506040000000     0.0838956  
C629     C      0.584200000000     0.559640000000     0.507170000000     0.243454   
C630     C      0.674140000000     0.599600000000     0.583230000000    -0.0376794  
C631     C      0.716340000000     0.606070000000     0.586950000000     0.0491618  
C632     C      0.619810000000     0.558480000000     0.527160000000     0.0814844  
C633     C      0.942740000000     0.736180000000     0.682040000000    -0.164747   
C634     C      0.088300000000     0.772970000000     0.765500000000     0.0730639  
C635     C      0.085740000000     0.808800000000     0.768030000000     0.0743868  
C636     C      0.064660000000     0.760020000000     0.752520000000    -0.0926843  
C637     C      0.009490000000     0.735760000000     0.743600000000    -0.0349592  
C638     C      0.985980000000     0.723930000000     0.729980000000    -0.032193   
C639     C      0.026730000000     0.758820000000     0.731430000000    -0.00572816 
C640     C      0.062210000000     0.796480000000     0.754820000000    -0.0926469  
C641     C      0.979250000000     0.734830000000     0.703690000000    -0.0169663  
C642     C      0.940770000000     0.697610000000     0.685340000000    -0.111885   
C643     C      0.996740000000     0.757700000000     0.691070000000    -0.0320185  
C644     C      0.916860000000     0.686550000000     0.673550000000     0.082085   
C645     C      0.918830000000     0.724690000000     0.669900000000     0.242744   
C646     C      0.020140000000     0.769580000000     0.704870000000    -0.0347885  
C647     C      0.051460000000     0.771870000000     0.746580000000     0.0501913  
C648     C      0.953990000000     0.722710000000     0.690060000000     0.0803146  
Cu1      Cu     0.835250000000     0.684250000000     0.637230000000     0.854559   
Cu2      Cu     0.834100000000     0.645120000000     0.642300000000     0.842542   
Cu3      Cu     0.167220000000     0.854030000000     0.804450000000     0.850833   
Cu4      Cu     0.170980000000     0.817490000000     0.799590000000     0.849221   
Cu5      Cu     0.503770000000     0.028950000000     0.965490000000     0.855601   
Cu6      Cu     0.501790000000     0.989400000000     0.969360000000     0.845761   
Cu7      Cu     0.169290000000     0.351910000000     0.304980000000     0.849831   
Cu8      Cu     0.166410000000     0.311950000000     0.308660000000     0.850453   
Cu9      Cu     0.834870000000     0.192740000000     0.139210000000     0.857104   
Cu10     Cu     0.836300000000     0.155010000000     0.133160000000     0.846914   
Cu11     Cu     0.500580000000     0.516780000000     0.474260000000     0.851241   
Cu12     Cu     0.502700000000     0.479290000000     0.470310000000     0.850645   
Cu13     Cu     0.150840000000     0.314810000000     0.808960000000     0.849436   
Cu14     Cu     0.188520000000     0.354160000000     0.804510000000     0.851017   
Cu15     Cu     0.317330000000     0.149990000000     0.633350000000     0.854985   
Cu16     Cu     0.355900000000     0.188510000000     0.637450000000     0.849812   
Cu17     Cu     0.981680000000     0.481240000000     0.966830000000     0.849066   
Cu18     Cu     0.020130000000     0.520030000000     0.968910000000     0.851695   
Cu19     Cu     0.641590000000     0.808410000000     0.301820000000     0.855836   
Cu20     Cu     0.681320000000     0.845540000000     0.307300000000     0.845309   
Cu21     Cu     0.811070000000     0.641250000000     0.141330000000     0.850543   
Cu22     Cu     0.848140000000     0.681150000000     0.138680000000     0.856385   
Cu23     Cu     0.485230000000     0.984670000000     0.470320000000     0.846102   
Cu24     Cu     0.523610000000     0.023250000000     0.465040000000     0.858178   
Cu25     Cu     0.356870000000     0.170380000000     0.136970000000     0.852996   
Cu26     Cu     0.318210000000     0.170390000000     0.133840000000     0.84583    
Cu27     Cu     0.521850000000     0.504240000000     0.970220000000     0.850073   
Cu28     Cu     0.483790000000     0.505270000000     0.975020000000     0.847604   
Cu29     Cu     0.190170000000     0.836100000000     0.298980000000     0.856484   
Cu30     Cu     0.152800000000     0.838250000000     0.305230000000     0.844053   
Cu31     Cu     0.022680000000     0.504260000000     0.470390000000     0.8508     
Cu32     Cu     0.983530000000     0.503240000000     0.466360000000     0.843363   
Cu33     Cu     0.854960000000     0.169530000000     0.634210000000     0.854458   
Cu34     Cu     0.817630000000     0.171910000000     0.638710000000     0.845585   
Cu35     Cu     0.684960000000     0.838420000000     0.806620000000     0.844397   
Cu36     Cu     0.645740000000     0.837160000000     0.802920000000     0.856467   
H1       H      0.765110000000     0.099130000000     0.670690000000     0.0264508  
H2       H      0.734900000000     0.911080000000     0.774830000000     0.0237279  
H3       H      0.729390000000     0.015880000000     0.675360000000     0.0396727  
H4       H      0.769850000000     0.993270000000     0.766250000000     0.0362574  
H5       H      0.756140000000     0.951750000000     0.752100000000     0.0576002  
H6       H      0.790980000000     0.033870000000     0.741380000000     0.0399589  
H7       H      0.689480000000     0.953640000000     0.752400000000     0.0813688  
H8       H      0.743600000000     0.058130000000     0.693200000000     0.0536852  
H9       H      0.809200000000     0.054390000000     0.685780000000     0.0539597  
H10      H      0.708340000000     0.975140000000     0.699830000000     0.0388752  
H11      H      0.830280000000     0.095470000000     0.663610000000     0.028292   
H12      H      0.661970000000     0.914650000000     0.800790000000     0.151817   
H13      H      0.000800000000     0.430870000000     0.500420000000     0.0276084  
H14      H      0.841560000000     0.244850000000     0.607280000000     0.0238762  
H15      H      0.961290000000     0.367800000000     0.574480000000     0.0390379  
H16      H      0.880320000000     0.306770000000     0.530190000000     0.0363362  
H17      H      0.861590000000     0.285760000000     0.585250000000     0.0579049  
H18      H      0.900570000000     0.347420000000     0.505390000000     0.0387547  
H19      H      0.928930000000     0.285390000000     0.581420000000     0.0811463  
H20      H      0.980730000000     0.389770000000     0.522290000000     0.0524457  
H21      H      0.912460000000     0.388650000000     0.519430000000     0.0527377  
H22      H      0.941120000000     0.327070000000     0.598940000000     0.0384826  
H23      H      0.932980000000     0.429550000000     0.496720000000     0.0259304  
H24      H      0.911050000000     0.234160000000     0.582370000000     0.152882   
H25      H      0.073120000000     0.577870000000     0.439380000000     0.0259519  
H26      H      0.100950000000     0.765130000000     0.334690000000     0.0241181  
H27      H      0.094470000000     0.639160000000     0.361240000000     0.0396924  
H28      H      0.075610000000     0.700650000000     0.406960000000     0.0361308  
H29      H      0.078970000000     0.723960000000     0.355760000000     0.0579838  
H30      H      0.055100000000     0.659870000000     0.431430000000     0.0389582  
H31      H      0.144490000000     0.720080000000     0.351320000000     0.0812573  
H32      H      0.093580000000     0.618920000000     0.416940000000     0.0532737  
H33      H      0.025290000000     0.617680000000     0.414330000000     0.0533193  
H34      H      0.114680000000     0.679740000000     0.336330000000     0.0386058  
H35      H      0.005340000000     0.576710000000     0.436960000000     0.0261915  
H36      H      0.179720000000     0.770600000000     0.350270000000     0.152328   
H37      H      0.506490000000     0.579040000000     0.946090000000     0.0259486  
H38      H      0.663570000000     0.765400000000     0.836050000000     0.0238094  
H39      H      0.544460000000     0.640230000000     0.867520000000     0.0392475  
H40      H      0.625920000000     0.701700000000     0.909700000000     0.0367064  
H41      H      0.644580000000     0.724410000000     0.857700000000     0.0575693  
H42      H      0.606230000000     0.661000000000     0.934430000000     0.0391549  
H43      H      0.575480000000     0.721340000000     0.856860000000     0.0817212  
H44      H      0.526540000000     0.620080000000     0.923710000000     0.0533734  
H45      H      0.593440000000     0.618750000000     0.917050000000     0.0532149  
H46      H      0.564230000000     0.680720000000     0.842330000000     0.0365244  
H47      H      0.572930000000     0.577750000000     0.939690000000     0.0265134  
H48      H      0.586300000000     0.759970000000     0.807800000000     0.152122   
H49      H      0.333780000000     0.096620000000     0.165440000000     0.0265281  
H50      H      0.175810000000     0.911130000000     0.274590000000     0.023691   
H51      H      0.283830000000     0.013990000000     0.169900000000     0.0396125  
H52      H      0.223990000000     0.993290000000     0.264850000000     0.0359346  
H53      H      0.195120000000     0.951700000000     0.251520000000     0.0575508  
H54      H      0.243570000000     0.033840000000     0.239730000000     0.0389098  
H55      H      0.263020000000     0.952380000000     0.247520000000     0.0814282  
H56      H      0.313330000000     0.055520000000     0.187330000000     0.053462   
H57      H      0.245550000000     0.055370000000     0.185280000000     0.0530271  
H58      H      0.264120000000     0.973380000000     0.194740000000     0.0389247  
H59      H      0.266600000000     0.096670000000     0.163690000000     0.0258897  
H60      H      0.252300000000     0.913460000000     0.295850000000     0.151961   
H61      H      0.499360000000     0.430690000000     0.999860000000     0.0276601  
H62      H      0.341120000000     0.243810000000     0.106060000000     0.0236729  
H63      H      0.460900000000     0.368300000000     0.076380000000     0.039996   
H64      H      0.379510000000     0.307630000000     0.032980000000     0.0358474  
H65      H      0.360710000000     0.284970000000     0.085220000000     0.0575132  
H66      H      0.399440000000     0.348570000000     0.009190000000     0.0386501  
H67      H      0.429110000000     0.286580000000     0.084470000000     0.0811578  
H68      H      0.479260000000     0.389510000000     0.021590000000     0.0538384  
H69      H      0.412060000000     0.390370000000     0.026740000000     0.0529662  
H70      H      0.440900000000     0.327460000000     0.100450000000     0.0387014  
H71      H      0.432610000000     0.431490000000     0.004600000000     0.025914   
H72      H      0.412360000000     0.235600000000     0.084670000000     0.152772   
H73      H      0.624070000000     0.812380000000     0.696910000000     0.0269945  
H74      H      0.699680000000     0.841510000000     0.414070000000     0.0233586  
H75      H      0.634570000000     0.825370000000     0.582870000000     0.0395639  
H76      H      0.686700000000     0.798150000000     0.525930000000     0.0369481  
H77      H      0.699380000000     0.838570000000     0.476970000000     0.0591129  
H78      H      0.685220000000     0.798860000000     0.589370000000     0.0381941  
H79      H      0.624740000000     0.782260000000     0.473710000000     0.0831537  
H80      H      0.622430000000     0.805520000000     0.634970000000     0.0532435  
H81      H      0.697460000000     0.823610000000     0.637220000000     0.0524365  
H82      H      0.634970000000     0.822840000000     0.519780000000     0.040309   
H83      H      0.697840000000     0.828620000000     0.699390000000     0.025883   
H84      H      0.622130000000     0.766670000000     0.401800000000     0.152962   
H85      H      0.637840000000     0.857720000000     0.907440000000     0.0275878  
H86      H      0.691360000000     0.876310000000     0.204810000000     0.023774   
H87      H      0.627610000000     0.838300000000     0.019990000000     0.0399176  
H88      H      0.702880000000     0.873420000000     0.090220000000     0.0358592  
H89      H      0.693010000000     0.884530000000     0.143350000000     0.0576275  
H90      H      0.705780000000     0.877720000000     0.027410000000     0.0383313  
H91      H      0.630140000000     0.814190000000     0.127650000000     0.0814015  
H92      H      0.637240000000     0.862110000000     0.969870000000     0.0533964  
H93      H      0.700490000000     0.854090000000     0.978360000000     0.0528055  
H94      H      0.624740000000     0.835770000000     0.082860000000     0.0384843  
H95      H      0.701230000000     0.851000000000     0.915930000000     0.0260335  
H96      H      0.631060000000     0.790840000000     0.190650000000     0.152348   
H97      H      0.661990000000     0.755360000000     0.272590000000     0.0260562  
H98      H      0.822950000000     0.728770000000     0.172140000000     0.025307   
H99      H      0.702290000000     0.731070000000     0.200620000000     0.0388872  
H100     H      0.781860000000     0.749170000000     0.248790000000     0.0365936  
H101     H      0.802080000000     0.748720000000     0.194510000000     0.0582297  
H102     H      0.761240000000     0.769310000000     0.273140000000     0.0385756  
H103     H      0.734900000000     0.680910000000     0.192410000000     0.081698   
H104     H      0.681670000000     0.733580000000     0.251860000000     0.0529231  
H105     H      0.750760000000     0.799520000000     0.257860000000     0.0526695  
H106     H      0.722870000000     0.710770000000     0.176510000000     0.0368888  
H107     H      0.730660000000     0.820600000000     0.279270000000     0.0257576  
H108     H      0.748010000000     0.655000000000     0.142900000000     0.152908   
H109     H      0.661350000000     0.898560000000     0.336760000000     0.0264153  
H110     H      0.505970000000     0.932790000000     0.440550000000     0.023934   
H111     H      0.622650000000     0.923250000000     0.410020000000     0.0396374  
H112     H      0.543170000000     0.907150000000     0.364070000000     0.0371345  
H113     H      0.524510000000     0.910260000000     0.419140000000     0.0582319  
H114     H      0.562310000000     0.885570000000     0.339450000000     0.0395411  
H115     H      0.593580000000     0.976010000000     0.415830000000     0.0827843  
H116     H      0.642200000000     0.920540000000     0.358360000000     0.0536746  
H117     H      0.572700000000     0.855040000000     0.352750000000     0.0541788  
H118     H      0.603640000000     0.945020000000     0.434200000000     0.0374811  
H119     H      0.592350000000     0.833720000000     0.330250000000     0.0295988  
H120     H      0.583570000000     0.005100000000     0.463790000000     0.155428   
H121     H      0.974930000000     0.522770000000     0.571310000000     0.0254051  
H122     H      0.025670000000     0.546750000000     0.864740000000     0.0238439  
H123     H      0.003640000000     0.487280000000     0.685470000000     0.0398616  
H124     H      0.997800000000     0.551390000000     0.750590000000     0.0367243  
H125     H      0.026690000000     0.551540000000     0.802190000000     0.058459   
H126     H      0.001550000000     0.553950000000     0.686880000000     0.0386636  
H127     H      0.965070000000     0.479910000000     0.792720000000     0.0820372  
H128     H      0.973540000000     0.525470000000     0.634290000000     0.0537629  
H129     H      0.037440000000     0.518840000000     0.642310000000     0.0543438  
H130     H      0.999430000000     0.484490000000     0.748750000000     0.0402103  
H131     H      0.038740000000     0.516690000000     0.579450000000     0.0258598  
H132     H      0.946110000000     0.473670000000     0.863120000000     0.152174   
H133     H      0.031160000000     0.483890000000     0.366570000000     0.0255339  
H134     H      0.975980000000     0.454520000000     0.070830000000     0.0239879  
H135     H      0.040890000000     0.501540000000     0.253250000000     0.0391255  
H136     H      0.965190000000     0.462320000000     0.183900000000     0.0361323  
H137     H      0.975470000000     0.449040000000     0.132880000000     0.0579845  
H138     H      0.962720000000     0.460390000000     0.246930000000     0.0386066  
H139     H      0.036860000000     0.521010000000     0.142890000000     0.081426   
H140     H      0.031720000000     0.478540000000     0.304430000000     0.0533698  
H141     H      0.968020000000     0.485640000000     0.294430000000     0.0530998  
H142     H      0.043390000000     0.501850000000     0.190290000000     0.0382488  
H143     H      0.967380000000     0.489800000000     0.356790000000     0.0254096  
H144     H      0.034230000000     0.541210000000     0.077810000000     0.152924   
H145     H      0.996560000000     0.570280000000     0.998490000000     0.0255036  
H146     H      0.836280000000     0.593300000000     0.110180000000     0.0241744  
H147     H      0.945970000000     0.602350000000     0.005470000000     0.0390168  
H148     H      0.886230000000     0.561380000000     0.100010000000     0.0361912  
H149     H      0.856650000000     0.573240000000     0.086580000000     0.057739   
H150     H      0.906480000000     0.541310000000     0.074140000000     0.0388617  
H151     H      0.923590000000     0.641330000000     0.084510000000     0.0815535  
H152     H      0.975860000000     0.590460000000     0.021330000000     0.0528838  
H153     H      0.908490000000     0.522570000000     0.019300000000     0.0529109  
H154     H      0.925590000000     0.622370000000     0.031130000000     0.038446   
H155     H      0.929770000000     0.502800000000     0.996850000000     0.0258923  
H156     H      0.911580000000     0.668120000000     0.133580000000     0.155438   
H157     H      0.301340000000     0.158440000000     0.024700000000     0.0256601  
H158     H      0.371010000000     0.193140000000     0.746050000000     0.023688   
H159     H      0.336470000000     0.118320000000     0.918100000000     0.039931   
H160     H      0.337310000000     0.186140000000     0.853250000000     0.0364841  
H161     H      0.370700000000     0.190310000000     0.808700000000     0.0586446  
H162     H      0.334040000000     0.184820000000     0.916630000000     0.0393317  
H163     H      0.310400000000     0.117630000000     0.803030000000     0.0817909  
H164     H      0.301690000000     0.155320000000     0.961850000000     0.0535474  
H165     H      0.364650000000     0.146990000000     0.968940000000     0.0541458  
H166     H      0.339380000000     0.119460000000     0.854330000000     0.0389267  
H167     H      0.364180000000     0.150600000000     0.031820000000     0.0262077  
H168     H      0.292440000000     0.118230000000     0.734890000000     0.153462   
H169     H      0.310830000000     0.190130000000     0.238910000000     0.0260298  
H170     H      0.302580000000     0.145340000000     0.524480000000     0.0250303  
H171     H      0.337580000000     0.221250000000     0.353170000000     0.0401897  
H172     H      0.336470000000     0.153040000000     0.417230000000     0.0370315  
H173     H      0.303060000000     0.148400000000     0.461810000000     0.0592278  
H174     H      0.340190000000     0.154850000000     0.353900000000     0.0398998  
H175     H      0.362780000000     0.221370000000     0.468170000000     0.0821509  
H176     H      0.309960000000     0.193230000000     0.301810000000     0.0541968  
H177     H      0.372690000000     0.184540000000     0.309210000000     0.0545615  
H178     H      0.334190000000     0.219610000000     0.416870000000     0.0393471  
H179     H      0.373430000000     0.181910000000     0.246310000000     0.0274245  
H180     H      0.380630000000     0.220800000000     0.536340000000     0.154176   
H181     H      0.407720000000     0.166860000000     0.606810000000     0.0260071  
H182     H      0.435210000000     0.008250000000     0.498760000000     0.0237159  
H183     H      0.441600000000     0.118300000000     0.597500000000     0.0390856  
H184     H      0.401390000000     0.057340000000     0.504150000000     0.0367612  
H185     H      0.414350000000     0.028240000000     0.521150000000     0.0576616  
H186     H      0.380760000000     0.077350000000     0.528940000000     0.0389097  
H187     H      0.480930000000     0.096550000000     0.517300000000     0.0817641  
H188     H      0.428860000000     0.147150000000     0.583770000000     0.0531462  
H189     H      0.361370000000     0.079340000000     0.581530000000     0.0533603  
H190     H      0.462300000000     0.098440000000     0.572410000000     0.0365361  
H191     H      0.340690000000     0.099670000000     0.603720000000     0.0278288  
H192     H      0.515230000000     0.079650000000     0.515990000000     0.151788   
H193     H      0.005300000000     0.430900000000     0.938130000000     0.0284851  
H194     H      0.165180000000     0.404050000000     0.834340000000     0.0250415  
H195     H      0.055680000000     0.398720000000     0.935320000000     0.0397846  
H196     H      0.116550000000     0.437830000000     0.841570000000     0.0366425  
H197     H      0.145520000000     0.425270000000     0.856440000000     0.0581058  
H198     H      0.096350000000     0.458620000000     0.865290000000     0.0395154  
H199     H      0.077670000000     0.358100000000     0.859370000000     0.0817488  
H200     H      0.026160000000     0.410430000000     0.917050000000     0.0544019  
H201     H      0.093550000000     0.478300000000     0.918670000000     0.0537771  
H202     H      0.075960000000     0.378000000000     0.911820000000     0.0389189  
H203     H      0.072110000000     0.498370000000     0.939370000000     0.027584   
H204     H      0.088950000000     0.330010000000     0.811830000000     0.152525   
H205     H      0.174340000000     0.264710000000     0.778790000000     0.026304   
H206     H      0.332790000000     0.238680000000     0.666370000000     0.0255407  
H207     H      0.212760000000     0.242540000000     0.699880000000     0.0396328  
H208     H      0.294570000000     0.263010000000     0.741330000000     0.0357889  
H209     H      0.313150000000     0.259880000000     0.688500000000     0.0582571  
H210     H      0.274550000000     0.283480000000     0.766730000000     0.0387123  
H211     H      0.244870000000     0.193110000000     0.688360000000     0.0810604  
H212     H      0.194730000000     0.244270000000     0.755730000000     0.0532791  
H213     H      0.261390000000     0.312710000000     0.750810000000     0.053034   
H214     H      0.232840000000     0.222260000000     0.674150000000     0.0388082  
H215     H      0.240540000000     0.332660000000     0.774240000000     0.0259173  
H216     H      0.261730000000     0.158980000000     0.686420000000     0.151484   
H217     H      0.518670000000     0.481350000000     0.863040000000     0.0261814  
H218     H      0.475530000000     0.512770000000     0.579380000000     0.0244659  
H219     H      0.471330000000     0.444970000000     0.755790000000     0.0401251  
H220     H      0.492580000000     0.520720000000     0.692040000000     0.0369094  
H221     H      0.470520000000     0.509670000000     0.641500000000     0.0576388  
H222     H      0.492760000000     0.520680000000     0.755310000000     0.0405951  
H223     H      0.492430000000     0.455630000000     0.642890000000     0.0815557  
H224     H      0.513510000000     0.476320000000     0.800280000000     0.0549424  
H225     H      0.454800000000     0.491370000000     0.805880000000     0.0541835  
H226     H      0.469320000000     0.444200000000     0.692330000000     0.036176   
H227     H      0.459760000000     0.495550000000     0.868620000000     0.025831   
H228     H      0.481710000000     0.439540000000     0.571240000000     0.152749   
H229     H      0.520580000000     0.545620000000     0.369750000000     0.0261395  
H230     H      0.479430000000     0.514190000000     0.084070000000     0.0237246  
H231     H      0.554000000000     0.552520000000     0.256040000000     0.039685   
H232     H      0.487250000000     0.485760000000     0.189650000000     0.0379585  
H233     H      0.482460000000     0.515760000000     0.146720000000     0.0587978  
H234     H      0.488410000000     0.482950000000     0.252950000000     0.0401374  
H235     H      0.555420000000     0.528880000000     0.139530000000     0.0826976  
H236     H      0.524530000000     0.550620000000     0.306960000000     0.05388    
H237     H      0.518230000000     0.480310000000     0.298080000000     0.0542971  
H238     H      0.553060000000     0.555150000000     0.192320000000     0.0371445  
H239     H      0.514780000000     0.475940000000     0.360820000000     0.0263556  
H240     H      0.565650000000     0.545750000000     0.067450000000     0.151046   
H241     H      0.859790000000     0.159790000000     0.026180000000     0.0259149  
H242     H      0.823180000000     0.198540000000     0.743170000000     0.0236508  
H243     H      0.893710000000     0.205390000000     0.918120000000     0.0401855  
H244     H      0.817200000000     0.184480000000     0.856750000000     0.036537   
H245     H      0.827410000000     0.204950000000     0.805010000000     0.0575364  
H246     H      0.818380000000     0.185490000000     0.919980000000     0.0412185  
H247     H      0.880770000000     0.182120000000     0.806360000000     0.0814697  
H248     H      0.864170000000     0.164970000000     0.963430000000     0.0547424  
H249     H      0.847260000000     0.222360000000     0.970020000000     0.0551172  
H250     H      0.893370000000     0.206240000000     0.854640000000     0.0365075  
H251     H      0.843740000000     0.217400000000     0.032860000000     0.0284151  
H252     H      0.895660000000     0.191030000000     0.734120000000     0.155073   
H253     H      0.788070000000     0.152010000000     0.534680000000     0.0261686  
H254     H      0.823850000000     0.194570000000     0.248620000000     0.0260807  
H255     H      0.832050000000     0.127720000000     0.414690000000     0.0386279  
H256     H      0.794400000000     0.170850000000     0.358200000000     0.0367906  
H257     H      0.819910000000     0.189760000000     0.310680000000     0.0583262  
H258     H      0.796310000000     0.170120000000     0.421190000000     0.0389304  
H259     H      0.808690000000     0.117510000000     0.300560000000     0.0810476  
H260     H      0.782170000000     0.147160000000     0.472400000000     0.0532734  
H261     H      0.852160000000     0.152420000000     0.462400000000     0.0526158  
H262     H      0.831840000000     0.130080000000     0.351720000000     0.0362953  
H263     H      0.856930000000     0.156100000000     0.524730000000     0.0259094  
H264     H      0.829860000000     0.121240000000     0.233380000000     0.153327   
H265     H      0.147280000000     0.359860000000     0.408220000000     0.0260514  
H266     H      0.121490000000     0.306060000000     0.705600000000     0.0241234  
H267     H      0.164180000000     0.369770000000     0.521340000000     0.0390526  
H268     H      0.127010000000     0.294510000000     0.591650000000     0.0363066  
H269     H      0.114630000000     0.304520000000     0.643710000000     0.0578661  
H270     H      0.124330000000     0.291620000000     0.528670000000     0.0387995  
H271     H      0.185450000000     0.367190000000     0.630510000000     0.0812225  
H272     H      0.141640000000     0.360380000000     0.470290000000     0.052903   
H273     H      0.148750000000     0.296710000000     0.480640000000     0.0536438  
H274     H      0.165070000000     0.372630000000     0.584190000000     0.0380879  
H275     H      0.153040000000     0.296040000000     0.418350000000     0.0281028  
H276     H      0.207390000000     0.366200000000     0.694720000000     0.152578   
H277     H      0.212440000000     0.368150000000     0.910880000000     0.0263015  
H278     H      0.172150000000     0.297790000000     0.201200000000     0.0235067  
H279     H      0.182050000000     0.363130000000     0.022770000000     0.0409197  
H280     H      0.198120000000     0.305850000000     0.089180000000     0.0357495  
H281     H      0.175390000000     0.297100000000     0.138970000000     0.0571785  
H282     H      0.196510000000     0.303910000000     0.025720000000     0.0396625  
H283     H      0.203950000000     0.374340000000     0.136200000000     0.0809975  
H284     H      0.216980000000     0.369040000000     0.973650000000     0.0543349  
H285     H      0.158420000000     0.295300000000     0.979260000000     0.0545955  
H286     H      0.181870000000     0.364210000000     0.085920000000     0.036398   
H287     H      0.153720000000     0.295050000000     0.916390000000     0.0271254  
H288     H      0.186170000000     0.381050000000     0.201120000000     0.154347   
H289     H      0.096910000000     0.332930000000     0.272380000000     0.0258578  
H290     H      0.908790000000     0.177050000000     0.165330000000     0.0233348  
H291     H      0.033600000000     0.294690000000     0.198120000000     0.0385149  
H292     H      0.970370000000     0.214960000000     0.243160000000     0.0371137  
H293     H      0.949620000000     0.196230000000     0.187760000000     0.057308   
H294     H      0.010830000000     0.234260000000     0.268550000000     0.0384192  
H295     H      0.951470000000     0.264670000000     0.189700000000     0.0817065  
H296     H      0.055920000000     0.314130000000     0.250060000000     0.0533755  
H297     H      0.051590000000     0.244420000000     0.255190000000     0.0530193  
H298     H      0.993020000000     0.275480000000     0.173090000000     0.0371671  
H299     H      0.092330000000     0.263680000000     0.278320000000     0.0261209  
H300     H      0.912690000000     0.253900000000     0.140580000000     0.152042   
H301     H      0.429210000000     0.426510000000     0.441370000000     0.0262063  
H302     H      0.242110000000     0.399740000000     0.338080000000     0.025473   
H303     H      0.364790000000     0.401740000000     0.368750000000     0.0392264  
H304     H      0.303800000000     0.421200000000     0.414830000000     0.0370804  
H305     H      0.282940000000     0.419870000000     0.360390000000     0.0585389  
H306     H      0.344600000000     0.441520000000     0.439070000000     0.0391117  
H307     H      0.282090000000     0.351900000000     0.360980000000     0.0820627  
H308     H      0.387770000000     0.404780000000     0.420530000000     0.0534431  
H309     H      0.385400000000     0.471250000000     0.423280000000     0.0530532  
H310     H      0.323900000000     0.381280000000     0.344710000000     0.0369982  
H311     H      0.426570000000     0.492300000000     0.444800000000     0.026374   
H312     H      0.242980000000     0.325360000000     0.311810000000     0.152745   
H313     H      0.522190000000     0.980950000000     0.865000000000     0.0259516  
H314     H      0.481030000000     0.971530000000     0.579360000000     0.0235825  
H315     H      0.555620000000     0.007600000000     0.751320000000     0.0399869  
H316     H      0.488770000000     0.007620000000     0.684900000000     0.0366935  
H317     H      0.484040000000     0.972950000000     0.641980000000     0.058624   
H318     H      0.489930000000     0.011540000000     0.748200000000     0.0394514  
H319     H      0.556940000000     0.032730000000     0.634820000000     0.0816578  
H320     H      0.526220000000     0.980020000000     0.802230000000     0.0539894  
H321     H      0.519660000000     0.043910000000     0.793310000000     0.0537771  
H322     H      0.554660000000     0.004070000000     0.687600000000     0.0389421  
H323     H      0.516120000000     0.044710000000     0.856050000000     0.0259999  
H324     H      0.556250000000     0.049540000000     0.565840000000     0.153932   
H325     H      0.520720000000     0.042560000000     0.357500000000     0.0294541  
H326     H      0.476860000000     0.968130000000     0.074500000000     0.02372    
H327     H      0.471800000000     0.031120000000     0.250800000000     0.0410875  
H328     H      0.494180000000     0.977480000000     0.187100000000     0.0367021  
H329     H      0.471900000000     0.966140000000     0.136650000000     0.057656   
H330     H      0.494590000000     0.977830000000     0.250400000000     0.0413462  
H331     H      0.492750000000     0.041780000000     0.137890000000     0.0820275  
H332     H      0.515390000000     0.042240000000     0.294750000000     0.0565091  
H333     H      0.455660000000     0.969180000000     0.301340000000     0.0548019  
H334     H      0.469590000000     0.029760000000     0.187350000000     0.0368187  
H335     H      0.460810000000     0.970140000000     0.364080000000     0.0261867  
H336     H      0.481810000000     0.046960000000     0.066220000000     0.155323   
H337     H      0.577610000000     0.078340000000     0.995660000000     0.0286702  
H338     H      0.763580000000     0.104160000000     0.101650000000     0.025631   
H339     H      0.659290000000     0.110140000000     0.004340000000     0.0393658  
H340     H      0.679990000000     0.068830000000     0.096310000000     0.0373619  
H341     H      0.722890000000     0.082940000000     0.078470000000     0.0587971  
H342     H      0.639290000000     0.048570000000     0.071560000000     0.0395741  
H343     H      0.718620000000     0.148010000000     0.087310000000     0.0823592  
H344     H      0.618520000000     0.098310000000     0.018080000000     0.0542967  
H345     H      0.616390000000     0.029560000000     0.020430000000     0.0532228  
H346     H      0.699740000000     0.130510000000     0.029730000000     0.0391096  
H347     H      0.575130000000     0.009990000000     0.999050000000     0.0262124  
H348     H      0.756860000000     0.173960000000     0.137580000000     0.153522   
H349     H      0.157650000000     0.861110000000     0.412480000000     0.0257243  
H350     H      0.197130000000     0.823670000000     0.694810000000     0.0234081  
H351     H      0.202630000000     0.894380000000     0.520690000000     0.0398722  
H352     H      0.183050000000     0.817990000000     0.581250000000     0.0361558  
H353     H      0.203450000000     0.828230000000     0.632990000000     0.0569304  
H354     H      0.184090000000     0.819470000000     0.518040000000     0.0400214  
H355     H      0.179440000000     0.880670000000     0.632520000000     0.081184   
H356     H      0.162890000000     0.865260000000     0.475230000000     0.0544306  
H357     H      0.220240000000     0.848300000000     0.468030000000     0.0538431  
H358     H      0.203440000000     0.893780000000     0.584150000000     0.0361002  
H359     H      0.215210000000     0.845010000000     0.405180000000     0.0258301  
H360     H      0.188230000000     0.895280000000     0.704890000000     0.152826   
H361     H      0.185380000000     0.813550000000     0.191430000000     0.0292175  
H362     H      0.141720000000     0.848200000000     0.909680000000     0.0236719  
H363     H      0.138940000000     0.779070000000     0.084210000000     0.0409542  
H364     H      0.157820000000     0.854920000000     0.022640000000     0.0366188  
H365     H      0.136390000000     0.844190000000     0.971720000000     0.0574474  
H366     H      0.157890000000     0.854100000000     0.085880000000     0.0410725  
H367     H      0.160060000000     0.791490000000     0.971490000000     0.0815998  
H368     H      0.179690000000     0.809050000000     0.128730000000     0.0559955  
H369     H      0.121840000000     0.825230000000     0.136690000000     0.0547429  
H370     H      0.137020000000     0.779010000000     0.020790000000     0.036412   
H371     H      0.127310000000     0.828870000000     0.199420000000     0.0263278  
H372     H      0.149990000000     0.776270000000     0.899430000000     0.152807   
H373     H      0.239860000000     0.908290000000     0.835070000000     0.0263022  
H374     H      0.428930000000     0.940270000000     0.938120000000     0.023978   
H375     H      0.304690000000     0.934720000000     0.907270000000     0.0397358  
H376     H      0.367250000000     0.917630000000     0.860910000000     0.0363383  
H377     H      0.388020000000     0.919260000000     0.916130000000     0.0582647  
H378     H      0.326530000000     0.896490000000     0.836510000000     0.0386886  
H379     H      0.387380000000     0.986460000000     0.914050000000     0.0811809  
H380     H      0.281160000000     0.930960000000     0.856220000000     0.0532626  
H381     H      0.286230000000     0.865980000000     0.851390000000     0.0537833  
H382     H      0.345590000000     0.956110000000     0.931290000000     0.0388471  
H383     H      0.245240000000     0.844040000000     0.829440000000     0.0281525  
H384     H      0.438540000000     0.020240000000     0.915120000000     0.15296    
H385     H      0.826110000000     0.699060000000     0.743540000000     0.0281668  
H386     H      0.792330000000     0.627920000000     0.033460000000     0.0238098  
H387     H      0.850360000000     0.694020000000     0.856710000000     0.0411924  
H388     H      0.775990000000     0.636740000000     0.920880000000     0.0359679  
H389     H      0.789230000000     0.627610000000     0.971140000000     0.057391   
H390     H      0.776630000000     0.634990000000     0.857460000000     0.0399006  
H391     H      0.837960000000     0.704850000000     0.969660000000     0.0815262  
H392     H      0.821910000000     0.700030000000     0.806190000000     0.055105   
H393     H      0.807000000000     0.626370000000     0.812640000000     0.0541456  
H394     H      0.850640000000     0.694900000000     0.919900000000     0.0369172  
H395     H      0.812000000000     0.626040000000     0.749920000000     0.0257039  
H396     H      0.861550000000     0.711120000000     0.035320000000     0.156966   
H397     H      0.852620000000     0.635000000000     0.537340000000     0.0254289  
H398     H      0.806090000000     0.625540000000     0.250200000000     0.0257253  
H399     H      0.882710000000     0.660310000000     0.421270000000     0.03927    
H400     H      0.813240000000     0.657700000000     0.358670000000     0.0375069  
H401     H      0.809280000000     0.625050000000     0.312810000000     0.0593315  
H402     H      0.815560000000     0.661500000000     0.422010000000     0.0399213  
H403     H      0.881540000000     0.686110000000     0.307390000000     0.0815421  
H404     H      0.854630000000     0.632650000000     0.474360000000     0.0534992  
H405     H      0.846890000000     0.695810000000     0.464650000000     0.0536864  
H406     H      0.880620000000     0.656930000000     0.357530000000     0.0383663  
H407     H      0.845430000000     0.698070000000     0.527450000000     0.0259358  
H408     H      0.880300000000     0.704810000000     0.240150000000     0.154489   
H409     H      0.761390000000     0.662060000000     0.609080000000     0.0261325  
H410     H      0.575790000000     0.503160000000     0.501040000000     0.0262836  
H411     H      0.678380000000     0.612820000000     0.603650000000     0.0394239  
H412     H      0.657860000000     0.551670000000     0.510670000000     0.0362451  
H413     H      0.616360000000     0.522970000000     0.524200000000     0.0586987  
H414     H      0.698320000000     0.571490000000     0.536130000000     0.0390473  
H415     H      0.616680000000     0.590710000000     0.525470000000     0.0813383  
H416     H      0.720350000000     0.641880000000     0.586730000000     0.0531954  
H417     H      0.719030000000     0.573610000000     0.591360000000     0.0532011  
H418     H      0.637830000000     0.592830000000     0.578500000000     0.0390575  
H419     H      0.760200000000     0.594330000000     0.613360000000     0.025905   
H420     H      0.577750000000     0.579110000000     0.476740000000     0.15152    
H421     H      0.093360000000     0.827900000000     0.773770000000     0.0284586  
H422     H      0.907420000000     0.667020000000     0.670640000000     0.0234994  
H423     H      0.033180000000     0.787160000000     0.694540000000     0.0398229  
H424     H      0.972920000000     0.706500000000     0.740680000000     0.0368369  
H425     H      0.948830000000     0.686470000000     0.690590000000     0.0569672  
H426     H      0.013990000000     0.727120000000     0.764260000000     0.03868    
H427     H      0.952220000000     0.755630000000     0.685710000000     0.0813309  
H428     H      0.052460000000     0.806210000000     0.751150000000     0.054674   
H429     H      0.057000000000     0.741000000000     0.746380000000     0.0533187  
H430     H      0.992400000000     0.766430000000     0.670360000000     0.0369281  
H431     H      0.098030000000     0.763220000000     0.769160000000     0.0259311  
H432     H      0.912660000000     0.743540000000     0.637860000000     0.151945   
N1       N      0.699850000000     0.908340000000     0.776030000000    -0.220442   
N2       N      0.799350000000     0.100470000000     0.665760000000    -0.19313    
N3       N      0.873320000000     0.241090000000     0.606950000000    -0.220594   
N4       N      0.968450000000     0.433380000000     0.497200000000    -0.192952   
N5       N      0.135330000000     0.766590000000     0.330630000000    -0.220367   
N6       N      0.037680000000     0.574120000000     0.439530000000    -0.193421   
N7       N      0.630780000000     0.767240000000     0.833600000000    -0.220456   
N8       N      0.538130000000     0.575220000000     0.944230000000    -0.193454   
N9       N      0.207780000000     0.907780000000     0.273680000000    -0.220593   
N10      N      0.301780000000     0.099820000000     0.163220000000    -0.19349    
N11      N      0.373460000000     0.241100000000     0.107430000000    -0.220401   
N12      N      0.467560000000     0.434270000000     0.000880000000    -0.193247   
N13      N      0.662470000000     0.813760000000     0.407280000000    -0.22076    
N14      N      0.661130000000     0.821260000000     0.702710000000    -0.193374   
N15      N      0.659860000000     0.840800000000     0.202120000000    -0.220551   
N16      N      0.669320000000     0.853630000000     0.907060000000    -0.193229   
N17      N      0.791320000000     0.693310000000     0.169350000000    -0.22011    
N18      N      0.694800000000     0.789640000000     0.277250000000    -0.193636   
N19      N      0.538750000000     0.967430000000     0.440470000000    -0.220398   
N20      N      0.628340000000     0.864450000000     0.332200000000    -0.192819   
N21      N      0.995080000000     0.510550000000     0.865160000000    -0.221315   
N22      N      0.006640000000     0.519050000000     0.570740000000    -0.193514   
N23      N      0.006530000000     0.490730000000     0.070630000000    -0.220371   
N24      N      0.999450000000     0.487610000000     0.366280000000    -0.196053   
N25      N      0.867700000000     0.628980000000     0.110350000000    -0.220483   
N26      N      0.964780000000     0.534980000000     0.996300000000    -0.193469   
N27      N      0.340390000000     0.157510000000     0.737980000000    -0.22106    
N28      N      0.332990000000     0.155200000000     0.032880000000    -0.193878   
N29      N      0.332900000000     0.181110000000     0.532850000000    -0.220723   
N30      N      0.341920000000     0.185360000000     0.237980000000    -0.193512   
N31      N      0.470210000000     0.040460000000     0.495680000000    -0.220454   
N32      N      0.372600000000     0.134830000000     0.606630000000    -0.193229   
N33      N      0.133220000000     0.368770000000     0.834720000000    -0.220215   
N34      N      0.037090000000     0.466190000000     0.940090000000    -0.192738   
N35      N      0.300510000000     0.203660000000     0.664480000000    -0.220169   
N36      N      0.205830000000     0.300250000000     0.777900000000    -0.193711   
N37      N      0.486390000000     0.485910000000     0.574880000000    -0.22069    
N38      N      0.489800000000     0.489100000000     0.870430000000    -0.1937     
N39      N      0.515210000000     0.519740000000     0.075220000000    -0.220838   
N40      N      0.516980000000     0.510250000000     0.369910000000    -0.19359    
N41      N      0.849650000000     0.187180000000     0.738640000000    -0.22049    
N42      N      0.851120000000     0.187980000000     0.034110000000    -0.193401   
N43      N      0.819790000000     0.159550000000     0.238410000000    -0.2203     
N44      N      0.823070000000     0.154760000000     0.534330000000    -0.193548   
N45      N      0.157160000000     0.337400000000     0.704140000000    -0.220586   
N46      N      0.150980000000     0.328160000000     0.408700000000    -0.19321    
N47      N      0.184480000000     0.335870000000     0.204690000000    -0.221291   
N48      N      0.182480000000     0.331670000000     0.909030000000    -0.193262   
N49      N      0.906200000000     0.209450000000     0.164660000000    -0.2207     
N50      N      0.097780000000     0.299760000000     0.276780000000    -0.19369    
N51      N      0.238160000000     0.364180000000     0.336590000000    -0.220053   
N52      N      0.431070000000     0.461050000000     0.444420000000    -0.193534   
N53      N      0.516750000000     0.001820000000     0.570460000000    -0.220887   
N54      N      0.518450000000     0.012640000000     0.865140000000    -0.193727   
N55      N      0.487230000000     0.005700000000     0.069940000000    -0.220617   
N56      N      0.491360000000     0.006300000000     0.365390000000    -0.19312    
N57      N      0.764990000000     0.138430000000     0.107510000000    -0.220241   
N58      N      0.573210000000     0.042650000000     0.995980000000    -0.193122   
N59      N      0.185190000000     0.849670000000     0.699800000000    -0.220692   
N60      N      0.185810000000     0.852430000000     0.404230000000    -0.193537   
N61      N      0.153450000000     0.822060000000     0.904370000000    -0.220779   
N62      N      0.156990000000     0.821840000000     0.200030000000    -0.192876   
N63      N      0.432240000000     0.975570000000     0.938580000000    -0.220385   
N64      N      0.239390000000     0.874450000000     0.830850000000    -0.193124   
N65      N      0.818040000000     0.665960000000     0.037650000000    -0.221109   
N66      N      0.819700000000     0.662600000000     0.742130000000    -0.193417   
N67      N      0.841470000000     0.656570000000     0.242350000000    -0.220689   
N68      N      0.848440000000     0.666440000000     0.537060000000    -0.19378    
N69      N      0.572260000000     0.535030000000     0.500600000000    -0.220118   
N70      N      0.763980000000     0.629770000000     0.612540000000    -0.193493   
N71      N      0.905710000000     0.699800000000     0.666230000000    -0.22045    
N72      N      0.098870000000     0.797260000000     0.772830000000    -0.19308    
O1       O      0.870970000000     0.699930000000     0.649300000000    -0.385898   
O2       O      0.799390000000     0.664760000000     0.625670000000    -0.398093   
O3       O      0.827420000000     0.681150000000     0.688690000000    -0.396734   
O4       O      0.842910000000     0.683580000000     0.586220000000    -0.399472   
O5       O      0.842780000000     0.648670000000     0.590950000000    -0.397142   
O6       O      0.825400000000     0.645330000000     0.693130000000    -0.396487   
O7       O      0.798520000000     0.629430000000     0.629170000000    -0.397183   
O8       O      0.869850000000     0.664650000000     0.654800000000    -0.398928   
O9       O      0.202910000000     0.871900000000     0.817660000000    -0.397256   
O10      O      0.132030000000     0.832760000000     0.790730000000    -0.395637   
O11      O      0.158410000000     0.844680000000     0.855120000000    -0.399388   
O12      O      0.176110000000     0.859650000000     0.753240000000    -0.386364   
O13      O      0.179820000000     0.826840000000     0.748950000000    -0.399372   
O14      O      0.162140000000     0.811900000000     0.850800000000    -0.386409   
O15      O      0.135240000000     0.799620000000     0.786380000000    -0.396504   
O16      O      0.206210000000     0.838820000000     0.813270000000    -0.395194   
O17      O      0.468010000000     0.010150000000     0.953000000000    -0.38678    
O18      O      0.539300000000     0.043890000000     0.978430000000    -0.394878   
O19      O      0.512040000000     0.029000000000     0.914510000000    -0.398909   
O20      O      0.495390000000     0.025100000000     0.016820000000    -0.384648   
O21      O      0.492570000000     0.988940000000     0.020050000000    -0.399157   
O22      O      0.511190000000     0.993700000000     0.918310000000    -0.397825   
O23      O      0.537360000000     0.008110000000     0.982870000000    -0.397047   
O24      O      0.466460000000     0.974550000000     0.955350000000    -0.400294   
O25      O      0.204390000000     0.366070000000     0.319830000000    -0.39708    
O26      O      0.133880000000     0.333850000000     0.290520000000    -0.398245   
O27      O      0.159250000000     0.347400000000     0.355710000000    -0.397873   
O28      O      0.179100000000     0.352620000000     0.254620000000    -0.390074   
O29      O      0.175200000000     0.315970000000     0.257360000000    -0.399502   
O30      O      0.157800000000     0.311810000000     0.359580000000    -0.394763   
O31      O      0.131070000000     0.297680000000     0.295160000000    -0.398143   
O32      O      0.202090000000     0.330110000000     0.321730000000    -0.383771   
O33      O      0.799320000000     0.172890000000     0.126310000000    -0.3852     
O34      O      0.870610000000     0.208990000000     0.151430000000    -0.384976   
O35      O      0.843160000000     0.198270000000     0.087830000000    -0.395266   
O36      O      0.826630000000     0.183490000000     0.190010000000    -0.397709   
O37      O      0.826930000000     0.148940000000     0.184150000000    -0.387629   
O38      O      0.845590000000     0.164730000000     0.082740000000    -0.397379   
O39      O      0.871700000000     0.174750000000     0.147260000000    -0.400383   
O40      O      0.800710000000     0.138960000000     0.119730000000    -0.396652   
O41      O      0.536180000000     0.533600000000     0.487530000000    -0.384107   
O42      O      0.465210000000     0.496340000000     0.460580000000    -0.398347   
O43      O      0.491540000000     0.508010000000     0.525000000000    -0.39743    
O44      O      0.509800000000     0.521890000000     0.423130000000    -0.397242   
O45      O      0.510780000000     0.487500000000     0.419290000000    -0.39842    
O46      O      0.494490000000     0.474740000000     0.521720000000    -0.386651   
O47      O      0.466870000000     0.462280000000     0.458070000000    -0.397635   
O48      O      0.538270000000     0.499920000000     0.483020000000    -0.396777   
O49      O      0.134330000000     0.333910000000     0.822130000000    -0.384073   
O50      O      0.170940000000     0.299520000000     0.795230000000    -0.398423   
O51      O      0.159760000000     0.314590000000     0.859730000000    -0.394367   
O52      O      0.145660000000     0.318850000000     0.757740000000    -0.398897   
O53      O      0.180040000000     0.353990000000     0.753640000000    -0.386502   
O54      O      0.193380000000     0.350570000000     0.855820000000    -0.398393   
O55      O      0.205170000000     0.335010000000     0.792050000000    -0.397354   
O56      O      0.168210000000     0.369460000000     0.817390000000    -0.397425   
O57      O      0.301010000000     0.169260000000     0.646790000000    -0.385749   
O58      O      0.337310000000     0.134450000000     0.620450000000    -0.396581   
O59      O      0.321660000000     0.145300000000     0.684530000000    -0.389139   
O60      O      0.316870000000     0.158340000000     0.582480000000    -0.398226   
O61      O      0.351540000000     0.193250000000     0.586330000000    -0.388702   
O62      O      0.356400000000     0.180140000000     0.688270000000    -0.401117   
O63      O      0.372240000000     0.169250000000     0.623920000000    -0.397436   
O64      O      0.335840000000     0.203990000000     0.650480000000    -0.397981   
O65      O      0.001770000000     0.465740000000     0.954060000000    -0.393625   
O66      O      0.965270000000     0.500490000000     0.979940000000    -0.397705   
O67      O      0.980200000000     0.488490000000     0.915770000000    -0.385712   
O68      O      0.986970000000     0.477690000000     0.018020000000    -0.402124   
O69      O      0.021610000000     0.512730000000     0.019990000000    -0.385844   
O70      O      0.014760000000     0.523620000000     0.917710000000    -0.398693   
O71      O      0.000060000000     0.535520000000     0.981820000000    -0.397048   
O72      O      0.036550000000     0.500790000000     0.955750000000    -0.394768   
O73      O      0.626780000000     0.829210000000     0.314390000000    -0.392089   
O74      O      0.660250000000     0.791170000000     0.289850000000    -0.397553   
O75      O      0.644390000000     0.803140000000     0.353230000000    -0.386582   
O76      O      0.642570000000     0.817340000000     0.250960000000    -0.385529   
O77      O      0.678090000000     0.851230000000     0.256030000000    -0.399149   
O78      O      0.680610000000     0.836200000000     0.358050000000    -0.399088   
O79      O      0.696100000000     0.824900000000     0.294030000000    -0.398742   
O80      O      0.662740000000     0.862650000000     0.319990000000    -0.39745    
O81      O      0.793430000000     0.659340000000     0.154120000000    -0.38403    
O82      O      0.832250000000     0.627030000000     0.128210000000    -0.400099   
O83      O      0.819000000000     0.640720000000     0.192410000000    -0.397857   
O84      O      0.806830000000     0.645670000000     0.089970000000    -0.399656   
O85      O      0.839570000000     0.682320000000     0.088160000000    -0.388482   
O86      O      0.853150000000     0.676170000000     0.189470000000    -0.389131   
O87      O      0.865560000000     0.663110000000     0.124400000000    -0.382729   
O88      O      0.827110000000     0.695270000000     0.153250000000    -0.39801    
O89      O      0.504510000000     0.968190000000     0.457860000000    -0.39914    
O90      O      0.469710000000     0.004950000000     0.482250000000    -0.399698   
O91      O      0.480330000000     0.987900000000     0.418920000000    -0.398277   
O92      O      0.493780000000     0.985130000000     0.521240000000    -0.40148    
O93      O      0.528840000000     0.019530000000     0.516310000000    -0.388275   
O94      O      0.514590000000     0.023260000000     0.414300000000    -0.392515   
O95      O      0.504530000000     0.039690000000     0.478400000000    -0.387228   
O96      O      0.539030000000     0.003070000000     0.452330000000    -0.382204   
O97      O      0.336970000000     0.134810000000     0.149510000000    -0.398634   
O98      O      0.373070000000     0.206020000000     0.123990000000    -0.385433   
O99      O      0.357680000000     0.178860000000     0.188020000000    -0.395938   
O100     O      0.352210000000     0.161690000000     0.085700000000    -0.398484   
O101     O      0.317350000000     0.161830000000     0.082840000000    -0.398608   
O102     O      0.322890000000     0.179140000000     0.185070000000    -0.397765   
O103     O      0.338200000000     0.206000000000     0.121160000000    -0.399915   
O104     O      0.301980000000     0.134720000000     0.146940000000    -0.396799   
O105     O      0.502220000000     0.468810000000     0.983990000000    -0.395761   
O106     O      0.537860000000     0.539800000000     0.956980000000    -0.396964   
O107     O      0.527110000000     0.513430000000     0.021390000000    -0.38267    
O108     O      0.512800000000     0.495060000000     0.919530000000    -0.396756   
O109     O      0.478910000000     0.496970000000     0.923690000000    -0.398857   
O110     O      0.492320000000     0.513470000000     0.025890000000    -0.400856   
O111     O      0.503590000000     0.540890000000     0.962180000000    -0.397743   
O112     O      0.467660000000     0.469520000000     0.987310000000    -0.397084   
O113     O      0.206750000000     0.871810000000     0.286310000000    -0.384243   
O114     O      0.170060000000     0.800740000000     0.312290000000    -0.386959   
O115     O      0.180540000000     0.827430000000     0.248360000000    -0.39251    
O116     O      0.196030000000     0.844670000000     0.350300000000    -0.397713   
O117     O      0.162440000000     0.847010000000     0.355790000000    -0.397662   
O118     O      0.146870000000     0.829600000000     0.254000000000    -0.396814   
O119     O      0.136250000000     0.802480000000     0.318080000000    -0.398372   
O120     O      0.172980000000     0.873680000000     0.291770000000    -0.399737   
O121     O      0.038220000000     0.539770000000     0.456750000000    -0.397349   
O122     O      0.003350000000     0.468710000000     0.483510000000    -0.396548   
O123     O      0.018440000000     0.495150000000     0.419360000000    -0.399666   
O124     O      0.023060000000     0.513040000000     0.521160000000    -0.399354   
O125     O      0.987770000000     0.512260000000     0.517570000000    -0.398775   
O126     O      0.983210000000     0.494460000000     0.415480000000    -0.39918    
O127     O      0.967960000000     0.467730000000     0.479890000000    -0.396823   
O128     O      0.002830000000     0.538800000000     0.453360000000    -0.396977   
O129     O      0.871960000000     0.205220000000     0.621400000000    -0.386805   
O130     O      0.834380000000     0.134110000000     0.647510000000    -0.395062   
O131     O      0.846230000000     0.161080000000     0.583350000000    -0.398394   
O132     O      0.860050000000     0.178170000000     0.685490000000    -0.384384   
O133     O      0.826940000000     0.181410000000     0.689210000000    -0.398832   
O134     O      0.811990000000     0.162300000000     0.587750000000    -0.397514   
O135     O      0.800760000000     0.136400000000     0.652620000000    -0.396936   
O136     O      0.838110000000     0.207130000000     0.624280000000    -0.400184   
O137     O      0.665620000000     0.802680000000     0.819330000000    -0.398859   
O138     O      0.700400000000     0.873980000000     0.793490000000    -0.399222   
O139     O      0.685330000000     0.846890000000     0.857570000000    -0.397907   
O140     O      0.680870000000     0.829850000000     0.755330000000    -0.397894   
O141     O      0.644900000000     0.827670000000     0.752260000000    -0.395218   
O142     O      0.650320000000     0.846660000000     0.853940000000    -0.394952   
O143     O      0.664930000000     0.872630000000     0.789250000000    -0.384631   
O144     O      0.630350000000     0.801860000000     0.817030000000    -0.38562    
O145     O      0.663150000000     0.910400000000     0.776340000000    -0.293411   
O146     O      0.911500000000     0.241920000000     0.604920000000    -0.29457    
O147     O      0.171330000000     0.763260000000     0.328060000000    -0.293639   
O148     O      0.591580000000     0.764220000000     0.832310000000    -0.293581   
O149     O      0.246210000000     0.909180000000     0.271670000000    -0.29355    
O150     O      0.412190000000     0.243060000000     0.107220000000    -0.293866   
O151     O      0.621000000000     0.781350000000     0.406690000000    -0.294201   
O152     O      0.624420000000     0.801970000000     0.192040000000    -0.293571   
O153     O      0.753210000000     0.656000000000     0.167450000000    -0.294237   
O154     O      0.577920000000     0.003540000000     0.439390000000    -0.29258    
O155     O      0.959930000000     0.470990000000     0.858630000000    -0.294332   
O156     O      0.041340000000     0.530460000000     0.077460000000    -0.294076   
O157     O      0.905600000000     0.666530000000     0.109360000000    -0.294035   
O158     O      0.307100000000     0.116550000000     0.735910000000    -0.294759   
O159     O      0.365840000000     0.222240000000     0.535280000000    -0.294886   
O160     O      0.506970000000     0.079130000000     0.493860000000    -0.293228   
O161     O      0.094800000000     0.331780000000     0.836150000000    -0.293816   
O162     O      0.261840000000     0.166910000000     0.664150000000    -0.293207   
O163     O      0.497020000000     0.454630000000     0.576740000000    -0.294338   
O164     O      0.556380000000     0.528100000000     0.072180000000    -0.293664   
O165     O      0.880530000000     0.175980000000     0.740410000000    -0.294636   
O166     O      0.813330000000     0.119080000000     0.233950000000    -0.294954   
O167     O      0.196230000000     0.372830000000     0.695390000000    -0.294174   
O168     O      0.200550000000     0.378910000000     0.202020000000    -0.296297   
O169     O      0.908440000000     0.248280000000     0.164950000000    -0.293967   
O170     O      0.238840000000     0.326760000000     0.336230000000    -0.293842   
O171     O      0.557820000000     0.034850000000     0.567540000000    -0.294967   
O172     O      0.497250000000     0.047430000000     0.071730000000    -0.294219   
O173     O      0.761440000000     0.174170000000     0.112880000000    -0.293946   
O174     O      0.173310000000     0.880040000000     0.698530000000    -0.29466    
O175     O      0.165060000000     0.791480000000     0.905310000000    -0.294826   
O176     O      0.430860000000     0.012640000000     0.937590000000    -0.294357   
O177     O      0.845030000000     0.709000000000     0.035730000000    -0.296144   
O178     O      0.882220000000     0.690290000000     0.240440000000    -0.295634   
O179     O      0.573460000000     0.573370000000     0.501070000000    -0.293547   
O180     O      0.908880000000     0.738990000000     0.662690000000    -0.294401   


