data_structure

_audit_creation_method RASPA-1.0
_audit_creation_date 2023-5-19
_audit_author_name 'Poobodin Mano'

_cell_length_a    38.9093
_cell_length_b    38.9506
_cell_length_c    38.9458
_cell_angle_alpha 90
_cell_angle_beta  90
_cell_angle_gamma 90
_cell_volume      59023.9

_symmetry_cell_setting          triclinic
_symmetry_space_group_name_Hall 'P 1'
_symmetry_space_group_name_H-M  'P 1'
_symmetry_Int_Tables_number     1

_symmetry_equiv_pos_as_xyz 'x,y,z'

loop_
_atom_site_label
_atom_site_type_symbol
_atom_site_fract_x
_atom_site_fract_y
_atom_site_fract_z
_atom_site_charge
C1       C      0.986850000000     0.057430000000     0.483470000000     0.405169   
C2       C      0.989380000000     0.920370000000     0.482290000000     0.405038   
C3       C      0.919420000000     0.987810000000     0.484530000000     0.405802   
C4       C      0.056460000000     0.990590000000     0.481220000000     0.406118   
C5       C      0.988060000000     0.420240000000     0.498040000000     0.408898   
C6       C      0.989050000000     0.557440000000     0.496040000000     0.410117   
C7       C      0.988760000000     0.486340000000     0.427450000000     0.411296   
C8       C      0.988720000000     0.488680000000     0.564490000000     0.409786   
C9       C      0.556110000000     0.992560000000     0.482610000000     0.410659   
C10      C      0.419100000000     0.995630000000     0.490240000000     0.409923   
C11      C      0.484950000000     0.995400000000     0.417980000000     0.404884   
C12      C      0.488870000000     0.993360000000     0.555050000000     0.409519   
C13      C      0.491330000000     0.989320000000     0.055060000000     0.410589   
C14      C      0.495580000000     0.988770000000     0.917980000000     0.404378   
C15      C      0.493420000000     0.058280000000     0.984230000000     0.411354   
C16      C      0.493360000000     0.921360000000     0.987670000000     0.405679   
C17      C      0.985380000000     0.494750000000     0.063600000000     0.405585   
C18      C      0.996490000000     0.497090000000     0.927120000000     0.405393   
C19      C      0.059310000000     0.497280000000     0.002390000000     0.410031   
C20      C      0.922760000000     0.494150000000     0.988200000000     0.41029    
C21      C      0.487350000000     0.421990000000     0.992510000000     0.405924   
C22      C      0.496140000000     0.558670000000     0.991940000000     0.411052   
C23      C      0.422500000000     0.494250000000     0.993450000000     0.405714   
C24      C      0.559460000000     0.486990000000     0.991270000000     0.404859   
C25      C      0.833720000000     0.462910000000     0.977670000000    -0.141558   
C26      C      0.612960000000     0.482830000000     0.020770000000     0.0719941  
C27      C      0.612200000000     0.489990000000     0.960300000000     0.0713092  
C28      C      0.648850000000     0.483060000000     0.020820000000    -0.0936286  
C29      C      0.724180000000     0.463650000000     0.006840000000    -0.0379165  
C30      C      0.760080000000     0.464700000000     0.006140000000    -0.0319506  
C31      C      0.704820000000     0.488820000000     0.989700000000    -0.00613224 
C32      C      0.648080000000     0.490920000000     0.959510000000    -0.0939648  
C33      C      0.777270000000     0.491280000000     0.988810000000    -0.0162719  
C34      C      0.833340000000     0.522150000000     0.994630000000    -0.106945   
C35      C      0.757900000000     0.516700000000     0.972060000000    -0.0320616  
C36      C      0.869150000000     0.522270000000     0.993340000000     0.0776845  
C37      C      0.869700000000     0.464120000000     0.974440000000     0.184048   
C38      C      0.722010000000     0.515330000000     0.972270000000    -0.0379812  
C39      C      0.666780000000     0.487490000000     0.990000000000     0.0487343  
C40      C      0.815310000000     0.492040000000     0.987540000000     0.0703445  
C41      C      0.149700000000     0.469720000000     0.010790000000    -0.141646   
C42      C      0.368790000000     0.493580000000     0.964040000000     0.0722253  
C43      C      0.370080000000     0.500440000000     0.024530000000     0.0721583  
C44      C      0.332900000000     0.494770000000     0.964200000000    -0.0935868  
C45      C      0.258070000000     0.474660000000     0.978760000000    -0.0379152  
C46      C      0.222190000000     0.474700000000     0.980350000000    -0.0319178  
C47      C      0.277170000000     0.500020000000     0.995900000000    -0.00591733 
C48      C      0.334230000000     0.502300000000     0.025530000000    -0.0934357  
C49      C      0.204710000000     0.500420000000     0.998640000000    -0.0162167  
C50      C      0.147320000000     0.529310000000     0.995290000000    -0.106781   
C51      C      0.223770000000     0.526150000000     0.015270000000    -0.0318444  
C52      C      0.111550000000     0.527930000000     0.997360000000     0.0777355  
C53      C      0.113790000000     0.469370000000     0.014770000000     0.184353   
C54      C      0.259700000000     0.525790000000     0.014140000000    -0.0378538  
C55      C      0.315250000000     0.499200000000     0.995170000000     0.0488787  
C56      C      0.166700000000     0.499770000000     0.001150000000     0.0705226  
C57      C      0.504380000000     0.648430000000     0.962580000000    -0.141878   
C58      C      0.462980000000     0.868340000000     0.985380000000     0.0723126  
C59      C      0.523470000000     0.868360000000     0.992890000000     0.0716425  
C60      C      0.462410000000     0.832520000000     0.986180000000    -0.0941453  
C61      C      0.475310000000     0.757480000000     0.966460000000    -0.0378555  
C62      C      0.475920000000     0.721620000000     0.966810000000    -0.0320006  
C63      C      0.492890000000     0.776270000000     0.991750000000    -0.00621247 
C64      C      0.523750000000     0.832540000000     0.994320000000    -0.0941719  
C65      C      0.493680000000     0.703920000000     0.992740000000    -0.016259   
C66      C      0.489200000000     0.647120000000     0.022310000000    -0.107066   
C67      C      0.510790000000     0.722710000000     0.018350000000    -0.0319437  
C68      C      0.490930000000     0.611390000000     0.021480000000     0.0782467  
C69      C      0.508010000000     0.612530000000     0.962750000000     0.184605   
C70      C      0.510600000000     0.758570000000     0.017720000000    -0.0377991  
C71      C      0.493010000000     0.814260000000     0.990820000000     0.0491817  
C72      C      0.495220000000     0.665940000000     0.992470000000     0.0706672  
C73      C      0.521710000000     0.148590000000     0.977440000000    -0.140679   
C74      C      0.484080000000     0.369180000000     0.961930000000     0.0723654  
C75      C      0.487820000000     0.368700000000     0.022670000000     0.0721368  
C76      C      0.484050000000     0.333380000000     0.961170000000    -0.0933661  
C77      C      0.506260000000     0.259400000000     0.965120000000    -0.037746   
C78      C      0.507500000000     0.223610000000     0.964130000000    -0.0316532  
C79      C      0.488000000000     0.276490000000     0.991170000000    -0.00551551 
C80      C      0.488120000000     0.332820000000     0.022820000000    -0.0929311  
C81      C      0.490810000000     0.203900000000     0.989360000000    -0.0154677  
C82      C      0.462670000000     0.146240000000     0.995110000000    -0.106219   
C83      C      0.472710000000     0.220940000000     0.015570000000    -0.0317114  
C84      C      0.463840000000     0.110560000000     0.992560000000     0.0780666  
C85      C      0.521880000000     0.112740000000     0.973260000000     0.184237   
C86      C      0.471290000000     0.256810000000     0.016440000000    -0.0375321  
C87      C      0.486510000000     0.314670000000     0.991790000000     0.0485775  
C88      C      0.491890000000     0.165730000000     0.987880000000     0.0698371  
C89      C      0.487160000000     0.020360000000     0.646150000000    -0.140934   
C90      C      0.466870000000     0.984900000000     0.864090000000     0.0718276  
C91      C      0.527500000000     0.990850000000     0.865750000000     0.0711223  
C92      C      0.467480000000     0.984010000000     0.828250000000    -0.0936776  
C93      C      0.481560000000     0.961600000000     0.754200000000    -0.0379754  
C94      C      0.481350000000     0.962030000000     0.718320000000    -0.0320771  
C95      C      0.499640000000     0.986760000000     0.772700000000    -0.00610422 
C96      C      0.528970000000     0.990620000000     0.829880000000    -0.0938142  
C97      C      0.498800000000     0.987930000000     0.700240000000    -0.0161244  
C98      C      0.501220000000     0.960530000000     0.642160000000    -0.106734   
C99      C      0.517150000000     0.012910000000     0.718730000000    -0.0321356  
C100     C      0.497660000000     0.962540000000     0.606590000000     0.0767417  
C101     C      0.481560000000     0.021410000000     0.610470000000     0.183182   
C102     C      0.517800000000     0.012160000000     0.754630000000    -0.03791    
C103     C      0.498750000000     0.987020000000     0.810760000000     0.0486779  
C104     C      0.496480000000     0.989740000000     0.662280000000     0.0697405  
C105     C      0.517050000000     0.984770000000     0.146380000000    -0.141237   
C106     C      0.486760000000     0.026620000000     0.365370000000     0.0717017  
C107     C      0.480130000000     0.966100000000     0.364450000000     0.071355   
C108     C      0.486500000000     0.027660000000     0.329520000000    -0.0935785  
C109     C      0.508690000000     0.015470000000     0.254790000000    -0.0378679  
C110     C      0.509700000000     0.014780000000     0.218920000000    -0.032085   
C111     C      0.482790000000     0.997820000000     0.272690000000    -0.00612253 
C112     C      0.479190000000     0.966310000000     0.328590000000    -0.0937343  
C113     C      0.484510000000     0.996900000000     0.200260000000    -0.016118   
C114     C      0.457630000000     0.000620000000     0.141990000000    -0.106497   
C115     C      0.458160000000     0.979890000000     0.218140000000    -0.0320616  
C116     C      0.459960000000     0.997680000000     0.106380000000     0.0774239  
C117     C      0.518350000000     0.979790000000     0.110630000000     0.184063   
C118     C      0.457470000000     0.980120000000     0.254030000000    -0.0378883  
C119     C      0.482640000000     0.997290000000     0.310740000000     0.0486446  
C120     C      0.486520000000     0.994760000000     0.162320000000     0.0701236  
C121     C      0.961690000000     0.485790000000     0.655620000000    -0.141075   
C122     C      0.994930000000     0.528130000000     0.874430000000     0.071816   
C123     C      0.001820000000     0.467630000000     0.873800000000     0.0716708  
C124     C      0.994740000000     0.528940000000     0.838580000000    -0.0938418  
C125     C      0.022330000000     0.480570000000     0.763090000000    -0.0379376  
C126     C      0.021000000000     0.479970000000     0.727260000000    -0.0319941  
C127     C      0.997460000000     0.498620000000     0.781970000000    -0.00615775 
C128     C      0.002260000000     0.467600000000     0.837960000000    -0.0940237  
C129     C      0.994500000000     0.497030000000     0.709660000000    -0.0162611  
C130     C      0.021470000000     0.500350000000     0.651610000000    -0.107096   
C131     C      0.969670000000     0.515180000000     0.728520000000    -0.0322225  
C132     C      0.019360000000     0.497220000000     0.616070000000     0.0774597  
C133     C      0.960520000000     0.480730000000     0.619850000000     0.181783   
C134     C      0.971290000000     0.516190000000     0.764370000000    -0.0380979  
C135     C      0.998330000000     0.498440000000     0.819980000000     0.0488313  
C136     C      0.992370000000     0.495060000000     0.671740000000     0.0698635  
C137     C      0.016940000000     0.478300000000     0.337160000000    -0.14048    
C138     C      0.981600000000     0.463440000000     0.115990000000     0.0715982  
C139     C      0.984270000000     0.524220000000     0.117210000000     0.0717374  
C140     C      0.980990000000     0.462280000000     0.151800000000    -0.0934386  
C141     C      0.001810000000     0.465810000000     0.226290000000    -0.0376092  
C142     C      0.002890000000     0.464850000000     0.262100000000    -0.0316642  
C143     C      0.983630000000     0.491840000000     0.209090000000    -0.00555896 
C144     C      0.984040000000     0.523970000000     0.153080000000    -0.0929715  
C145     C      0.986150000000     0.490120000000     0.281730000000    -0.0153584  
C146     C      0.958110000000     0.496620000000     0.339370000000    -0.106012   
C147     C      0.968040000000     0.516250000000     0.264570000000    -0.0318379  
C148     C      0.959310000000     0.494510000000     0.375070000000     0.078119   
C149     C      0.017100000000     0.474480000000     0.373060000000     0.184048   
C150     C      0.966720000000     0.517040000000     0.228700000000    -0.0375113  
C151     C      0.982650000000     0.492740000000     0.170890000000     0.0484467  
C152     C      0.987230000000     0.488870000000     0.319920000000     0.0696642  
C153     C      0.328500000000     0.968020000000     0.494780000000    -0.141851   
C154     C      0.109120000000     0.989980000000     0.449890000000     0.0722725  
C155     C      0.109880000000     0.996150000000     0.510470000000     0.0724888  
C156     C      0.144990000000     0.991600000000     0.448830000000    -0.0937682  
C157     C      0.218900000000     0.023760000000     0.496960000000    -0.0379411  
C158     C      0.254790000000     0.024460000000     0.497950000000    -0.0318625  
C159     C      0.201610000000     0.997780000000     0.478860000000    -0.00608065 
C160     C      0.145660000000     0.998440000000     0.510270000000    -0.0941092  
C161     C      0.274010000000     0.998890000000     0.481290000000    -0.0163107  
C162     C      0.331500000000     0.027630000000     0.479420000000    -0.106933   
C163     C      0.256720000000     0.973160000000     0.462820000000    -0.0319563  
C164     C      0.367150000000     0.026260000000     0.482900000000     0.0771517  
C165     C      0.364200000000     0.967680000000     0.500200000000     0.184063   
C166     C      0.220840000000     0.972770000000     0.461370000000    -0.0379382  
C167     C      0.163600000000     0.996080000000     0.479240000000     0.0491716  
C168     C      0.311920000000     0.998100000000     0.484550000000     0.0703398  
C169     C      0.645860000000     0.962020000000     0.475950000000    -0.141415   
C170     C      0.866930000000     0.984500000000     0.515970000000     0.0721268  
C171     C      0.865680000000     0.991600000000     0.455500000000     0.0722578  
C172     C      0.831040000000     0.984860000000     0.517200000000    -0.0936772  
C173     C      0.756350000000     0.016590000000     0.470370000000    -0.0377789  
C174     C      0.720460000000     0.017360000000     0.470370000000    -0.0319474  
C175     C      0.774100000000     0.990400000000     0.487710000000    -0.00615324 
C176     C      0.829830000000     0.992630000000     0.455900000000    -0.09394    
C177     C      0.701630000000     0.991670000000     0.487310000000    -0.0161944  
C178     C      0.644940000000     0.021490000000     0.492040000000    -0.106958   
C179     C      0.719360000000     0.965540000000     0.504770000000    -0.032071   
C180     C      0.609210000000     0.021100000000     0.489690000000     0.0780311  
C181     C      0.609960000000     0.962670000000     0.471660000000     0.183863   
C182     C      0.755290000000     0.965070000000     0.505220000000    -0.037907   
C183     C      0.812140000000     0.989250000000     0.486970000000     0.0491075  
C184     C      0.663590000000     0.991590000000     0.485770000000     0.0702903  
C185     C      0.961140000000     0.648230000000     0.498170000000    -0.141102   
C186     C      0.994800000000     0.867290000000     0.512210000000     0.0720734  
C187     C      0.986700000000     0.867270000000     0.451870000000     0.0717999  
C188     C      0.996060000000     0.831470000000     0.512530000000    -0.0935369  
C189     C      0.018720000000     0.757280000000     0.499850000000    -0.0378145  
C190     C      0.018720000000     0.721410000000     0.501010000000    -0.0318978  
C191     C      0.992820000000     0.775020000000     0.482040000000    -0.00595903 
C192     C      0.987280000000     0.831370000000     0.451360000000    -0.0933489  
C193     C      0.992530000000     0.702580000000     0.484800000000    -0.016013   
C194     C      0.020760000000     0.644850000000     0.482850000000    -0.106476   
C195     C      0.966780000000     0.720310000000     0.466750000000    -0.0320897  
C196     C      0.019280000000     0.609280000000     0.486780000000     0.0775621  
C197     C      0.960660000000     0.612590000000     0.504070000000     0.183719   
C198     C      0.967080000000     0.756180000000     0.465140000000    -0.0378961  
C199     C      0.992150000000     0.813090000000     0.481910000000     0.0487304  
C200     C      0.991350000000     0.664640000000     0.487950000000     0.0699918  
C201     C      0.958840000000     0.329970000000     0.502040000000    -0.141076   
C202     C      0.983610000000     0.110930000000     0.453860000000     0.0720333  
C203     C      0.990340000000     0.110090000000     0.514370000000     0.07215    
C204     C      0.983770000000     0.146830000000     0.453890000000    -0.0936417  
C205     C      0.963110000000     0.221850000000     0.468610000000    -0.0379216  
C206     C      0.963170000000     0.257710000000     0.470390000000    -0.0322157  
C207     C      0.988650000000     0.202690000000     0.485430000000    -0.00615747 
C208     C      0.991200000000     0.145910000000     0.515240000000    -0.0937398  
C209     C      0.989130000000     0.275060000000     0.488500000000    -0.0162076  
C210     C      0.018250000000     0.332240000000     0.485690000000    -0.107017   
C211     C      0.015060000000     0.255910000000     0.504730000000    -0.0320697  
C212     C      0.017390000000     0.367850000000     0.489210000000     0.0769751  
C213     C      0.959020000000     0.365680000000     0.507530000000     0.182809   
C214     C      0.014670000000     0.220060000000     0.503430000000    -0.0378757  
C215     C      0.987870000000     0.164670000000     0.484800000000     0.0489348  
C216     C      0.988610000000     0.313000000000     0.491460000000     0.0698166  
Cu1      Cu     0.987130000000     0.989170000000     0.451180000000     0.843168   
Cu2      Cu     0.988770000000     0.988660000000     0.514500000000     0.84715    
Cu3      Cu     0.957060000000     0.489060000000     0.495880000000     0.839133   
Cu4      Cu     0.020280000000     0.488570000000     0.495980000000     0.844633   
Cu5      Cu     0.486800000000     0.962670000000     0.486020000000     0.842194   
Cu6      Cu     0.488380000000     0.025850000000     0.486900000000     0.842704   
Cu7      Cu     0.525020000000     0.989890000000     0.987500000000     0.842452   
Cu8      Cu     0.461720000000     0.989710000000     0.985480000000     0.845317   
Cu9      Cu     0.991790000000     0.464280000000     0.994890000000     0.844815   
Cu10     Cu     0.990240000000     0.527510000000     0.995840000000     0.843263   
Cu11     Cu     0.491550000000     0.490430000000     0.024000000000     0.844202   
Cu12     Cu     0.490410000000     0.490310000000     0.960700000000     0.845966   
H1       H      0.598720000000     0.492820000000     0.936100000000     0.0232655  
H2       H      0.881880000000     0.545920000000     0.000700000000     0.0237272  
H3       H      0.707660000000     0.535170000000     0.959070000000     0.0377204  
H4       H      0.774450000000     0.444870000000     0.019340000000     0.0367429  
H5       H      0.819860000000     0.545320000000     0.002090000000     0.055715   
H6       H      0.711520000000     0.442870000000     0.020320000000     0.0380412  
H7       H      0.819900000000     0.439900000000     0.970240000000     0.0652245  
H8       H      0.661120000000     0.494070000000     0.935130000000     0.0518528  
H9       H      0.662480000000     0.480460000000     0.044940000000     0.0525878  
H10      H      0.770550000000     0.537300000000     0.958290000000     0.0360054  
H11      H      0.600080000000     0.479740000000     0.045260000000     0.0251029  
H12      H      0.871490000000     0.415370000000     0.951460000000     0.0868545  
H13      H      0.910080000000     0.438610000000     0.948060000000     0.105443   
H14      H      0.383760000000     0.502680000000     0.048670000000     0.0248943  
H15      H      0.097680000000     0.551190000000     0.990850000000     0.0237605  
H16      H      0.273830000000     0.545750000000     0.027400000000     0.0381374  
H17      H      0.208060000000     0.454660000000     0.967200000000     0.0367182  
H18      H      0.159670000000     0.553180000000     0.988090000000     0.0557622  
H19      H      0.270920000000     0.454380000000     0.964710000000     0.0381314  
H20      H      0.164600000000     0.447120000000     0.017350000000     0.065395   
H21      H      0.321430000000     0.505510000000     0.050030000000     0.0524253  
H22      H      0.319080000000     0.492500000000     0.940160000000     0.0525814  
H23      H      0.210910000000     0.546120000000     0.029750000000     0.0362821  
H24      H      0.381420000000     0.490160000000     0.939460000000     0.0251707  
H25      H      0.114440000000     0.420090000000     0.036670000000     0.0869771  
H26      H      0.074960000000     0.441630000000     0.041190000000     0.105346   
H27      H      0.547870000000     0.881540000000     0.995570000000     0.0233165  
H28      H      0.484430000000     0.597970000000     0.045010000000     0.0234968  
H29      H      0.524150000000     0.772490000000     0.037640000000     0.037672   
H30      H      0.462420000000     0.707690000000     0.946860000000     0.0366555  
H31      H      0.482270000000     0.659890000000     0.046040000000     0.0556687  
H32      H      0.461630000000     0.770530000000     0.946050000000     0.0379653  
H33      H      0.510990000000     0.662900000000     0.939720000000     0.0653465  
H34      H      0.547980000000     0.819240000000     0.997660000000     0.052014   
H35      H      0.438100000000     0.819220000000     0.983600000000     0.0526018  
H36      H      0.524910000000     0.709660000000     0.038460000000     0.0361158  
H37      H      0.438660000000     0.881470000000     0.981900000000     0.0249912  
H38      H      0.529440000000     0.612230000000     0.913240000000     0.0867722  
H39      H      0.533970000000     0.573140000000     0.935350000000     0.105106   
H40      H      0.489520000000     0.381690000000     0.047240000000     0.0250088  
H41      H      0.440700000000     0.096710000000     0.999590000000     0.0233494  
H42      H      0.456700000000     0.269090000000     0.036690000000     0.037433   
H43      H      0.521210000000     0.211430000000     0.943230000000     0.0351508  
H44      H      0.438790000000     0.158430000000     0.002550000000     0.0552409  
H45      H      0.519880000000     0.273670000000     0.945520000000     0.0373197  
H46      H      0.544540000000     0.163190000000     0.971020000000     0.0645853  
H47      H      0.490390000000     0.319480000000     0.047110000000     0.0519318  
H48      H      0.481980000000     0.320510000000     0.936610000000     0.0518201  
H49      H      0.459780000000     0.206560000000     0.035560000000     0.0358577  
H50      H      0.482360000000     0.382510000000     0.937550000000     0.0248864  
H51      H      0.570820000000     0.113460000000     0.950480000000     0.0866609  
H52      H      0.549160000000     0.074130000000     0.945960000000     0.105308   
H53      H      0.551530000000     0.993550000000     0.879590000000     0.0233645  
H54      H      0.503020000000     0.939340000000     0.592150000000     0.0230966  
H55      H      0.531780000000     0.031960000000     0.768280000000     0.0375709  
H56      H      0.466760000000     0.942640000000     0.704720000000     0.03589    
H57      H      0.508290000000     0.936270000000     0.653810000000     0.0551856  
H58      H      0.467540000000     0.941600000000     0.767520000000     0.0379176  
H59      H      0.481630000000     0.042810000000     0.661680000000     0.0649933  
H60      H      0.553660000000     0.992850000000     0.817220000000     0.0519397  
H61      H      0.443520000000     0.981500000000     0.814300000000     0.0523515  
H62      H      0.530890000000     0.033090000000     0.705380000000     0.0363853  
H63      H      0.442060000000     0.982670000000     0.876560000000     0.0250144  
H64      H      0.461260000000     0.071320000000     0.613040000000     0.0867453  
H65      H      0.453660000000     0.050610000000     0.573720000000     0.105285   
H66      H      0.477670000000     0.941500000000     0.377240000000     0.0240257  
H67      H      0.437090000000     0.003990000000     0.091760000000     0.0236768  
H68      H      0.437110000000     0.966480000000     0.267230000000     0.0380604  
H69      H      0.530220000000     0.028170000000     0.205720000000     0.0366877  
H70      H      0.433440000000     0.008200000000     0.153510000000     0.055557   
H71      H      0.528630000000     0.029150000000     0.268570000000     0.0379104  
H72      H      0.539180000000     0.978350000000     0.162050000000     0.0652268  
H73      H      0.476420000000     0.942250000000     0.314910000000     0.0520907  
H74      H      0.489020000000     0.052160000000     0.316580000000     0.0523977  
H75      H      0.438600000000     0.965680000000     0.204370000000     0.0363471  
H76      H      0.489760000000     0.050760000000     0.378890000000     0.0248898  
H77      H      0.567580000000     0.957830000000     0.113360000000     0.0867975  
H78      H      0.547060000000     0.951690000000     0.073660000000     0.105449   
H79      H      0.004490000000     0.443110000000     0.886700000000     0.0239362  
H80      H      0.042550000000     0.502950000000     0.601710000000     0.0237854  
H81      H      0.951670000000     0.530090000000     0.778360000000     0.0377289  
H82      H      0.040290000000     0.465550000000     0.713330000000     0.0361734  
H83      H      0.045740000000     0.507510000000     0.663230000000     0.0555642  
H84      H      0.042860000000     0.466970000000     0.776050000000     0.0379423  
H85      H      0.939310000000     0.479970000000     0.671170000000     0.0644699  
H86      H      0.004920000000     0.443450000000     0.824420000000     0.0520273  
H87      H      0.991950000000     0.553340000000     0.825500000000     0.0523709  
H88      H      0.949070000000     0.528630000000     0.715530000000     0.0360069  
H89      H      0.991960000000     0.552340000000     0.887840000000     0.0249087  
H90      H      0.910570000000     0.460440000000     0.622270000000     0.0850266  
H91      H      0.931070000000     0.453590000000     0.582720000000     0.100808   
H92      H      0.985790000000     0.548960000000     0.104550000000     0.0250284  
H93      H      0.936250000000     0.501950000000     0.388840000000     0.0237899  
H94      H      0.952140000000     0.537260000000     0.216370000000     0.0373699  
H95      H      0.016580000000     0.443990000000     0.274360000000     0.0351282  
H96      H      0.934280000000     0.504170000000     0.327140000000     0.0551478  
H97      H      0.015570000000     0.446240000000     0.212120000000     0.0369781  
H98      H      0.039700000000     0.471500000000     0.322620000000     0.0644862  
H99      H      0.985760000000     0.548170000000     0.166670000000     0.0518278  
H100     H      0.979120000000     0.437560000000     0.164370000000     0.0515271  
H101     H      0.955070000000     0.536280000000     0.278840000000     0.0358437  
H102     H      0.980550000000     0.439200000000     0.102330000000     0.023999   
H103     H      0.065760000000     0.451110000000     0.372520000000     0.0866078  
H104     H      0.044070000000     0.447160000000     0.411880000000     0.105068   
H105     H      0.097060000000     0.997990000000     0.535120000000     0.0249128  
H106     H      0.381290000000     0.049510000000     0.476970000000     0.0227768  
H107     H      0.208100000000     0.952370000000     0.447400000000     0.0381155  
H108     H      0.267500000000     0.044430000000     0.512580000000     0.0358534  
H109     H      0.319430000000     0.051530000000     0.471830000000     0.0553714  
H110     H      0.204630000000     0.043460000000     0.510460000000     0.0379906  
H111     H      0.313350000000     0.945440000000     0.500820000000     0.0653753  
H112     H      0.159240000000     0.001530000000     0.534360000000     0.0525482  
H113     H      0.158040000000     0.989780000000     0.424330000000     0.0526468  
H114     H      0.271000000000     0.953240000000     0.449650000000     0.0367065  
H115     H      0.095640000000     0.986720000000     0.425740000000     0.0250386  
H116     H      0.362680000000     0.918380000000     0.522040000000     0.0868961  
H117     H      0.401920000000     0.939940000000     0.528200000000     0.104886   
H118     H      0.878330000000     0.994290000000     0.430850000000     0.0249554  
H119     H      0.595990000000     0.044700000000     0.496310000000     0.0238504  
H120     H      0.768390000000     0.944510000000     0.518630000000     0.0379363  
H121     H      0.707420000000     0.037630000000     0.456480000000     0.0361953  
H122     H      0.657870000000     0.044970000000     0.499490000000     0.055673   
H123     H      0.770270000000     0.036550000000     0.456870000000     0.0380499  
H124     H      0.660210000000     0.939130000000     0.469210000000     0.0652207  
H125     H      0.816040000000     0.995730000000     0.431930000000     0.0524352  
H126     H      0.818180000000     0.982300000000     0.541750000000     0.0525071  
H127     H      0.705400000000     0.945510000000     0.518110000000     0.036525   
H128     H      0.880620000000     0.981360000000     0.540010000000     0.025012   
H129     H      0.609560000000     0.913440000000     0.449640000000     0.0867602  
H130     H      0.570820000000     0.936050000000     0.444460000000     0.105463   
H131     H      0.983040000000     0.880430000000     0.427620000000     0.0250494  
H132     H      0.042550000000     0.595080000000     0.481050000000     0.023939   
H133     H      0.946700000000     0.769230000000     0.451400000000     0.037964   
H134     H      0.038720000000     0.708420000000     0.515350000000     0.036253   
H135     H      0.044730000000     0.656700000000     0.475120000000     0.0556304  
H136     H      0.038990000000     0.771180000000     0.512910000000     0.0380829  
H137     H      0.938590000000     0.663510000000     0.504030000000     0.0651187  
H138     H      0.984340000000     0.818030000000     0.427130000000     0.0524279  
H139     H      0.999550000000     0.818210000000     0.536740000000     0.0523943  
H140     H      0.946380000000     0.706390000000     0.453930000000     0.036494   
H141     H      0.997770000000     0.880440000000     0.536570000000     0.0250754  
H142     H      0.911150000000     0.614650000000     0.525480000000     0.0868582  
H143     H      0.932530000000     0.575590000000     0.532700000000     0.105972   
H144     H      0.992950000000     0.096610000000     0.538580000000     0.0249796  
H145     H      0.040790000000     0.381600000000     0.482900000000     0.0217092  
H146     H      0.034780000000     0.205880000000     0.516430000000     0.0380127  
H147     H      0.942960000000     0.271920000000     0.457570000000     0.0364889  
H148     H      0.041890000000     0.319900000000     0.477680000000     0.0549884  
H149     H      0.942670000000     0.209050000000     0.454710000000     0.0379167  
H150     H      0.936150000000     0.315100000000     0.508400000000     0.0649397  
H151     H      0.994090000000     0.158860000000     0.539700000000     0.0523698  
H152     H      0.981260000000     0.160510000000     0.429810000000     0.052487   
H153     H      0.035200000000     0.268650000000     0.519100000000     0.0360947  
H154     H      0.980670000000     0.098100000000     0.429330000000     0.0249296  
H155     H      0.909890000000     0.364680000000     0.529850000000     0.0856008  
H156     H      0.932010000000     0.403510000000     0.536110000000     0.100913   
N1       N      0.887500000000     0.493300000000     0.984720000000    -0.211682   
N2       N      0.594730000000     0.486390000000     0.990750000000    -0.194062   
N3       N      0.885370000000     0.437330000000     0.958240000000    -0.218577   
N4       N      0.094600000000     0.497990000000     0.005510000000    -0.211682   
N5       N      0.387260000000     0.496130000000     0.994010000000    -0.193663   
N6       N      0.099550000000     0.441600000000     0.030630000000    -0.218567   
N7       N      0.498920000000     0.593930000000     0.991800000000    -0.21214    
N8       N      0.493290000000     0.886150000000     0.988590000000    -0.194422   
N9       N      0.523510000000     0.597750000000     0.935060000000    -0.218587   
N10      N      0.493320000000     0.093610000000     0.982840000000    -0.211986   
N11      N      0.486250000000     0.386760000000     0.992420000000    -0.193882   
N12      N      0.549360000000     0.098580000000     0.956780000000    -0.218603   
N13      N      0.488920000000     0.992780000000     0.590470000000    -0.211756   
N14      N      0.496660000000     0.988180000000     0.882750000000    -0.193933   
N15      N      0.465770000000     0.049870000000     0.597540000000    -0.218593   
N16      N      0.490190000000     0.988460000000     0.090440000000    -0.211508   
N17      N      0.483880000000     0.996030000000     0.382740000000    -0.19391    
N18      N      0.546450000000     0.963350000000     0.097710000000    -0.218458   
N19      N      0.989130000000     0.488420000000     0.599890000000    -0.212019   
N20      N      0.997990000000     0.497640000000     0.891920000000    -0.194291   
N21      N      0.931980000000     0.465210000000     0.606760000000    -0.218422   
N22      N      0.988680000000     0.484630000000     0.392110000000    -0.211852   
N23      N      0.983540000000     0.494150000000     0.098790000000    -0.194169   
N24      N      0.044390000000     0.457800000000     0.387350000000    -0.218616   
N25      N      0.383730000000     0.996320000000     0.491780000000    -0.212353   
N26      N      0.091690000000     0.992140000000     0.480500000000    -0.193981   
N27      N      0.377790000000     0.939900000000     0.516620000000    -0.218561   
N28      N      0.591490000000     0.991830000000     0.480760000000    -0.211781   
N29      N      0.884150000000     0.987860000000     0.485340000000    -0.193815   
N30      N      0.595180000000     0.935350000000     0.455510000000    -0.218551   
N31      N      0.989370000000     0.592860000000     0.496170000000    -0.211362   
N32      N      0.990280000000     0.885120000000     0.482100000000    -0.193517   
N33      N      0.932700000000     0.599400000000     0.520540000000    -0.218593   
N34      N      0.987890000000     0.384840000000     0.498850000000    -0.211797   
N35      N      0.986840000000     0.092680000000     0.483880000000    -0.193643   
N36      N      0.931580000000     0.379530000000     0.524310000000    -0.217975   
O1       O      0.986550000000     0.041260000000     0.454700000000    -0.397047   
O2       O      0.987700000000     0.937000000000     0.453830000000    -0.39692    
O3       O      0.935170000000     0.988750000000     0.455550000000    -0.39849    
O4       O      0.039370000000     0.989720000000     0.452990000000    -0.397433   
O5       O      0.040660000000     0.990360000000     0.510170000000    -0.399347   
O6       O      0.936570000000     0.987180000000     0.512720000000    -0.398114   
O7       O      0.990280000000     0.936660000000     0.510970000000    -0.398281   
O8       O      0.987470000000     0.040690000000     0.511900000000    -0.398381   
O9       O      0.959710000000     0.437020000000     0.497050000000    -0.402733   
O10      O      0.960480000000     0.541060000000     0.494790000000    -0.400354   
O11      O      0.960130000000     0.487590000000     0.443860000000    -0.398495   
O12      O      0.960200000000     0.490130000000     0.548010000000    -0.404821   
O13      O      0.017260000000     0.488770000000     0.547890000000    -0.40167    
O14      O      0.017230000000     0.487960000000     0.443970000000    -0.401688   
O15      O      0.017560000000     0.540740000000     0.495760000000    -0.398268   
O16      O      0.016800000000     0.436500000000     0.496680000000    -0.401811   
O17      O      0.538910000000     0.964510000000     0.484270000000    -0.40143    
O18      O      0.434960000000     0.966880000000     0.487850000000    -0.402255   
O19      O      0.485010000000     0.966540000000     0.433970000000    -0.399304   
O20      O      0.488270000000     0.965000000000     0.538160000000    -0.401139   
O21      O      0.490570000000     0.021970000000     0.538840000000    -0.401358   
O22      O      0.486080000000     0.023700000000     0.434880000000    -0.398395   
O23      O      0.436170000000     0.023900000000     0.489460000000    -0.401523   
O24      O      0.540340000000     0.021520000000     0.484210000000    -0.398945   
O25      O      0.520290000000     0.990590000000     0.039380000000    -0.40064    
O26      O      0.523670000000     0.989170000000     0.935330000000    -0.400268   
O27      O      0.521890000000     0.041840000000     0.986440000000    -0.401112   
O28      O      0.521980000000     0.937820000000     0.988440000000    -0.400803   
O29      O      0.464770000000     0.937760000000     0.986180000000    -0.3994     
O30      O      0.464800000000     0.041790000000     0.984670000000    -0.399918   
O31      O      0.466440000000     0.988890000000     0.933530000000    -0.397956   
O32      O      0.463230000000     0.990040000000     0.037700000000    -0.399095   
O33      O      0.987140000000     0.466440000000     0.046760000000    -0.400609   
O34      O      0.996260000000     0.468230000000     0.943110000000    -0.400579   
O35      O      0.043510000000     0.468510000000     0.999550000000    -0.401738   
O36      O      0.939910000000     0.466120000000     0.990290000000    -0.401881   
O37      O      0.938360000000     0.523140000000     0.990990000000    -0.398691   
O38      O      0.042320000000     0.525550000000     0.000540000000    -0.398208   
O39      O      0.994550000000     0.525390000000     0.943950000000    -0.398712   
O40      O      0.985990000000     0.523610000000     0.047650000000    -0.398622   
O41      O      0.488240000000     0.438420000000     0.021110000000    -0.397579   
O42      O      0.495190000000     0.542370000000     0.020640000000    -0.399552   
O43      O      0.439450000000     0.493980000000     0.021770000000    -0.397596   
O44      O      0.543460000000     0.487020000000     0.020120000000    -0.398348   
O45      O      0.542560000000     0.488160000000     0.962930000000    -0.40062    
O46      O      0.438420000000     0.492640000000     0.964600000000    -0.397772   
O47      O      0.493020000000     0.542190000000     0.963610000000    -0.40231    
O48      O      0.488000000000     0.438410000000     0.963910000000    -0.399384   


